
---------- Begin Simulation Statistics ----------
simSeconds                                   0.002715                       # Number of seconds simulated (Second)
simTicks                                   2714928300                       # Number of ticks simulated (Tick)
finalTick                                  2714928300                       # Number of ticks from beginning of simulation (restored from checkpoints and never reset) (Tick)
simFreq                                  1000000000000                       # The number of ticks per simulated second ((Tick/Second))
hostSeconds                                     24.77                       # Real time elapsed on the host (Second)
hostTickRate                                109621457                       # The number of ticks simulated per host second (ticks/s) ((Tick/Second))
hostMemory                                    1466372                       # Number of bytes of host memory used (Byte)
simInsts                                      4699806                       # Number of instructions simulated (Count)
simOps                                        9196152                       # Number of ops (including micro ops) simulated (Count)
hostInstRate                                   189765                       # Simulator instruction rate (inst/s) ((Count/Second))
hostOpRate                                     371315                       # Simulator op (including micro ops) rate (op/s) ((Count/Second))
system.clk_domain.clock                          1000                       # Clock period in ticks (Tick)
system.cpu0.numCycles                         3614028                       # Number of cpu cycles simulated (Cycle)
system.cpu0.cpi                              1.007005                       # CPI: cycles per instruction (core level) ((Cycle/Count))
system.cpu0.ipc                              0.993044                       # IPC: instructions per cycle (core level) ((Count/Cycle))
system.cpu0.numWorkItemsStarted                     0                       # Number of work items this cpu started (Count)
system.cpu0.numWorkItemsCompleted                   0                       # Number of work items this cpu completed (Count)
system.cpu0.instsAdded                        7377730                       # Number of instructions added to the IQ (excludes non-spec) (Count)
system.cpu0.nonSpecInstsAdded                    1005                       # Number of non-speculative instructions added to the IQ (Count)
system.cpu0.instsIssued                       7364196                       # Number of instructions issued (Count)
system.cpu0.squashedInstsIssued                  1604                       # Number of squashed instructions issued (Count)
system.cpu0.squashedInstsExamined              402619                       # Number of squashed instructions iterated over during squash; mainly for profiling (Count)
system.cpu0.squashedOperandsExamined           208832                       # Number of squashed operands that are examined and possibly removed from graph (Count)
system.cpu0.squashedNonSpecRemoved                450                       # Number of squashed non-spec instructions that were removed (Count)
system.cpu0.numIssuedDist::samples            3550684                       # Number of insts issued each cycle (Count)
system.cpu0.numIssuedDist::mean              2.074022                       # Number of insts issued each cycle (Count)
system.cpu0.numIssuedDist::stdev             2.225407                       # Number of insts issued each cycle (Count)
system.cpu0.numIssuedDist::underflows               0      0.00%      0.00% # Number of insts issued each cycle (Count)
system.cpu0.numIssuedDist::0                  1371480     38.63%     38.63% # Number of insts issued each cycle (Count)
system.cpu0.numIssuedDist::1                   464897     13.09%     51.72% # Number of insts issued each cycle (Count)
system.cpu0.numIssuedDist::2                   356032     10.03%     61.75% # Number of insts issued each cycle (Count)
system.cpu0.numIssuedDist::3                   450864     12.70%     74.44% # Number of insts issued each cycle (Count)
system.cpu0.numIssuedDist::4                   253587      7.14%     81.59% # Number of insts issued each cycle (Count)
system.cpu0.numIssuedDist::5                   280534      7.90%     89.49% # Number of insts issued each cycle (Count)
system.cpu0.numIssuedDist::6                   240180      6.76%     96.25% # Number of insts issued each cycle (Count)
system.cpu0.numIssuedDist::7                    88335      2.49%     98.74% # Number of insts issued each cycle (Count)
system.cpu0.numIssuedDist::8                    44775      1.26%    100.00% # Number of insts issued each cycle (Count)
system.cpu0.numIssuedDist::overflows                0      0.00%    100.00% # Number of insts issued each cycle (Count)
system.cpu0.numIssuedDist::min_value                0                       # Number of insts issued each cycle (Count)
system.cpu0.numIssuedDist::max_value                8                       # Number of insts issued each cycle (Count)
system.cpu0.numIssuedDist::total              3550684                       # Number of insts issued each cycle (Count)
system.cpu0.statFuBusy::No_OpClass                  0      0.00%      0.00% # attempts to use FU when none available (Count)
system.cpu0.statFuBusy::IntAlu                    672     15.95%     15.95% # attempts to use FU when none available (Count)
system.cpu0.statFuBusy::IntMult                     0      0.00%     15.95% # attempts to use FU when none available (Count)
system.cpu0.statFuBusy::IntDiv                      0      0.00%     15.95% # attempts to use FU when none available (Count)
system.cpu0.statFuBusy::FloatAdd                    0      0.00%     15.95% # attempts to use FU when none available (Count)
system.cpu0.statFuBusy::FloatCmp                    0      0.00%     15.95% # attempts to use FU when none available (Count)
system.cpu0.statFuBusy::FloatCvt                    0      0.00%     15.95% # attempts to use FU when none available (Count)
system.cpu0.statFuBusy::FloatMult                   0      0.00%     15.95% # attempts to use FU when none available (Count)
system.cpu0.statFuBusy::FloatMultAcc                0      0.00%     15.95% # attempts to use FU when none available (Count)
system.cpu0.statFuBusy::FloatDiv                    0      0.00%     15.95% # attempts to use FU when none available (Count)
system.cpu0.statFuBusy::FloatMisc                   0      0.00%     15.95% # attempts to use FU when none available (Count)
system.cpu0.statFuBusy::FloatSqrt                   0      0.00%     15.95% # attempts to use FU when none available (Count)
system.cpu0.statFuBusy::SimdAdd                     0      0.00%     15.95% # attempts to use FU when none available (Count)
system.cpu0.statFuBusy::SimdAddAcc                  0      0.00%     15.95% # attempts to use FU when none available (Count)
system.cpu0.statFuBusy::SimdAlu                     0      0.00%     15.95% # attempts to use FU when none available (Count)
system.cpu0.statFuBusy::SimdCmp                     0      0.00%     15.95% # attempts to use FU when none available (Count)
system.cpu0.statFuBusy::SimdCvt                     0      0.00%     15.95% # attempts to use FU when none available (Count)
system.cpu0.statFuBusy::SimdMisc                    0      0.00%     15.95% # attempts to use FU when none available (Count)
system.cpu0.statFuBusy::SimdMult                    0      0.00%     15.95% # attempts to use FU when none available (Count)
system.cpu0.statFuBusy::SimdMultAcc                 0      0.00%     15.95% # attempts to use FU when none available (Count)
system.cpu0.statFuBusy::SimdMatMultAcc              0      0.00%     15.95% # attempts to use FU when none available (Count)
system.cpu0.statFuBusy::SimdShift                   0      0.00%     15.95% # attempts to use FU when none available (Count)
system.cpu0.statFuBusy::SimdShiftAcc                0      0.00%     15.95% # attempts to use FU when none available (Count)
system.cpu0.statFuBusy::SimdDiv                     0      0.00%     15.95% # attempts to use FU when none available (Count)
system.cpu0.statFuBusy::SimdSqrt                    0      0.00%     15.95% # attempts to use FU when none available (Count)
system.cpu0.statFuBusy::SimdFloatAdd                0      0.00%     15.95% # attempts to use FU when none available (Count)
system.cpu0.statFuBusy::SimdFloatAlu                0      0.00%     15.95% # attempts to use FU when none available (Count)
system.cpu0.statFuBusy::SimdFloatCmp                0      0.00%     15.95% # attempts to use FU when none available (Count)
system.cpu0.statFuBusy::SimdFloatCvt                0      0.00%     15.95% # attempts to use FU when none available (Count)
system.cpu0.statFuBusy::SimdFloatDiv                0      0.00%     15.95% # attempts to use FU when none available (Count)
system.cpu0.statFuBusy::SimdFloatMisc               0      0.00%     15.95% # attempts to use FU when none available (Count)
system.cpu0.statFuBusy::SimdFloatMult               0      0.00%     15.95% # attempts to use FU when none available (Count)
system.cpu0.statFuBusy::SimdFloatMultAcc            0      0.00%     15.95% # attempts to use FU when none available (Count)
system.cpu0.statFuBusy::SimdFloatMatMultAcc            0      0.00%     15.95% # attempts to use FU when none available (Count)
system.cpu0.statFuBusy::SimdFloatSqrt               0      0.00%     15.95% # attempts to use FU when none available (Count)
system.cpu0.statFuBusy::SimdReduceAdd               0      0.00%     15.95% # attempts to use FU when none available (Count)
system.cpu0.statFuBusy::SimdReduceAlu               0      0.00%     15.95% # attempts to use FU when none available (Count)
system.cpu0.statFuBusy::SimdReduceCmp               0      0.00%     15.95% # attempts to use FU when none available (Count)
system.cpu0.statFuBusy::SimdFloatReduceAdd            0      0.00%     15.95% # attempts to use FU when none available (Count)
system.cpu0.statFuBusy::SimdFloatReduceCmp            0      0.00%     15.95% # attempts to use FU when none available (Count)
system.cpu0.statFuBusy::SimdAes                     0      0.00%     15.95% # attempts to use FU when none available (Count)
system.cpu0.statFuBusy::SimdAesMix                  0      0.00%     15.95% # attempts to use FU when none available (Count)
system.cpu0.statFuBusy::SimdSha1Hash                0      0.00%     15.95% # attempts to use FU when none available (Count)
system.cpu0.statFuBusy::SimdSha1Hash2               0      0.00%     15.95% # attempts to use FU when none available (Count)
system.cpu0.statFuBusy::SimdSha256Hash              0      0.00%     15.95% # attempts to use FU when none available (Count)
system.cpu0.statFuBusy::SimdSha256Hash2             0      0.00%     15.95% # attempts to use FU when none available (Count)
system.cpu0.statFuBusy::SimdShaSigma2               0      0.00%     15.95% # attempts to use FU when none available (Count)
system.cpu0.statFuBusy::SimdShaSigma3               0      0.00%     15.95% # attempts to use FU when none available (Count)
system.cpu0.statFuBusy::SimdPredAlu                 0      0.00%     15.95% # attempts to use FU when none available (Count)
system.cpu0.statFuBusy::Matrix                      0      0.00%     15.95% # attempts to use FU when none available (Count)
system.cpu0.statFuBusy::MatrixMov                   0      0.00%     15.95% # attempts to use FU when none available (Count)
system.cpu0.statFuBusy::MatrixOP                    0      0.00%     15.95% # attempts to use FU when none available (Count)
system.cpu0.statFuBusy::MemRead                  1048     24.88%     40.83% # attempts to use FU when none available (Count)
system.cpu0.statFuBusy::MemWrite                  701     16.64%     57.46% # attempts to use FU when none available (Count)
system.cpu0.statFuBusy::FloatMemRead              422     10.02%     67.48% # attempts to use FU when none available (Count)
system.cpu0.statFuBusy::FloatMemWrite            1370     32.52%    100.00% # attempts to use FU when none available (Count)
system.cpu0.statFuBusy::IprAccess                   0      0.00%    100.00% # attempts to use FU when none available (Count)
system.cpu0.statFuBusy::InstPrefetch                0      0.00%    100.00% # attempts to use FU when none available (Count)
system.cpu0.statFuBusy::SimdUnitStrideLoad            0      0.00%    100.00% # attempts to use FU when none available (Count)
system.cpu0.statFuBusy::SimdUnitStrideStore            0      0.00%    100.00% # attempts to use FU when none available (Count)
system.cpu0.statFuBusy::SimdUnitStrideMaskLoad            0      0.00%    100.00% # attempts to use FU when none available (Count)
system.cpu0.statFuBusy::SimdUnitStrideMaskStore            0      0.00%    100.00% # attempts to use FU when none available (Count)
system.cpu0.statFuBusy::SimdStridedLoad             0      0.00%    100.00% # attempts to use FU when none available (Count)
system.cpu0.statFuBusy::SimdStridedStore            0      0.00%    100.00% # attempts to use FU when none available (Count)
system.cpu0.statFuBusy::SimdIndexedLoad             0      0.00%    100.00% # attempts to use FU when none available (Count)
system.cpu0.statFuBusy::SimdIndexedStore            0      0.00%    100.00% # attempts to use FU when none available (Count)
system.cpu0.statFuBusy::SimdWholeRegisterLoad            0      0.00%    100.00% # attempts to use FU when none available (Count)
system.cpu0.statFuBusy::SimdWholeRegisterStore            0      0.00%    100.00% # attempts to use FU when none available (Count)
system.cpu0.statFuBusy::SimdUnitStrideFaultOnlyFirstLoad            0      0.00%    100.00% # attempts to use FU when none available (Count)
system.cpu0.statFuBusy::SimdUnitStrideSegmentedLoad            0      0.00%    100.00% # attempts to use FU when none available (Count)
system.cpu0.statFuBusy::SimdUnitStrideSegmentedStore            0      0.00%    100.00% # attempts to use FU when none available (Count)
system.cpu0.statFuBusy::SimdExt                     0      0.00%    100.00% # attempts to use FU when none available (Count)
system.cpu0.statFuBusy::SimdFloatExt                0      0.00%    100.00% # attempts to use FU when none available (Count)
system.cpu0.statFuBusy::SimdConfig                  0      0.00%    100.00% # attempts to use FU when none available (Count)
system.cpu0.statIssuedInstType_0::No_OpClass       105302      1.43%      1.43% # Number of instructions issued per FU type, per thread (Count)
system.cpu0.statIssuedInstType_0::IntAlu      4956375     67.30%     68.73% # Number of instructions issued per FU type, per thread (Count)
system.cpu0.statIssuedInstType_0::IntMult           51      0.00%     68.73% # Number of instructions issued per FU type, per thread (Count)
system.cpu0.statIssuedInstType_0::IntDiv          185      0.00%     68.74% # Number of instructions issued per FU type, per thread (Count)
system.cpu0.statIssuedInstType_0::FloatAdd          419      0.01%     68.74% # Number of instructions issued per FU type, per thread (Count)
system.cpu0.statIssuedInstType_0::FloatCmp            0      0.00%     68.74% # Number of instructions issued per FU type, per thread (Count)
system.cpu0.statIssuedInstType_0::FloatCvt            0      0.00%     68.74% # Number of instructions issued per FU type, per thread (Count)
system.cpu0.statIssuedInstType_0::FloatMult            0      0.00%     68.74% # Number of instructions issued per FU type, per thread (Count)
system.cpu0.statIssuedInstType_0::FloatMultAcc            0      0.00%     68.74% # Number of instructions issued per FU type, per thread (Count)
system.cpu0.statIssuedInstType_0::FloatDiv            0      0.00%     68.74% # Number of instructions issued per FU type, per thread (Count)
system.cpu0.statIssuedInstType_0::FloatMisc            0      0.00%     68.74% # Number of instructions issued per FU type, per thread (Count)
system.cpu0.statIssuedInstType_0::FloatSqrt            0      0.00%     68.74% # Number of instructions issued per FU type, per thread (Count)
system.cpu0.statIssuedInstType_0::SimdAdd            8      0.00%     68.74% # Number of instructions issued per FU type, per thread (Count)
system.cpu0.statIssuedInstType_0::SimdAddAcc            0      0.00%     68.74% # Number of instructions issued per FU type, per thread (Count)
system.cpu0.statIssuedInstType_0::SimdAlu       206399      2.80%     71.55% # Number of instructions issued per FU type, per thread (Count)
system.cpu0.statIssuedInstType_0::SimdCmp            0      0.00%     71.55% # Number of instructions issued per FU type, per thread (Count)
system.cpu0.statIssuedInstType_0::SimdCvt            6      0.00%     71.55% # Number of instructions issued per FU type, per thread (Count)
system.cpu0.statIssuedInstType_0::SimdMisc          544      0.01%     71.55% # Number of instructions issued per FU type, per thread (Count)
system.cpu0.statIssuedInstType_0::SimdMult            0      0.00%     71.55% # Number of instructions issued per FU type, per thread (Count)
system.cpu0.statIssuedInstType_0::SimdMultAcc            0      0.00%     71.55% # Number of instructions issued per FU type, per thread (Count)
system.cpu0.statIssuedInstType_0::SimdMatMultAcc            0      0.00%     71.55% # Number of instructions issued per FU type, per thread (Count)
system.cpu0.statIssuedInstType_0::SimdShift            0      0.00%     71.55% # Number of instructions issued per FU type, per thread (Count)
system.cpu0.statIssuedInstType_0::SimdShiftAcc            0      0.00%     71.55% # Number of instructions issued per FU type, per thread (Count)
system.cpu0.statIssuedInstType_0::SimdDiv            0      0.00%     71.55% # Number of instructions issued per FU type, per thread (Count)
system.cpu0.statIssuedInstType_0::SimdSqrt            0      0.00%     71.55% # Number of instructions issued per FU type, per thread (Count)
system.cpu0.statIssuedInstType_0::SimdFloatAdd            0      0.00%     71.55% # Number of instructions issued per FU type, per thread (Count)
system.cpu0.statIssuedInstType_0::SimdFloatAlu            0      0.00%     71.55% # Number of instructions issued per FU type, per thread (Count)
system.cpu0.statIssuedInstType_0::SimdFloatCmp            0      0.00%     71.55% # Number of instructions issued per FU type, per thread (Count)
system.cpu0.statIssuedInstType_0::SimdFloatCvt            0      0.00%     71.55% # Number of instructions issued per FU type, per thread (Count)
system.cpu0.statIssuedInstType_0::SimdFloatDiv            0      0.00%     71.55% # Number of instructions issued per FU type, per thread (Count)
system.cpu0.statIssuedInstType_0::SimdFloatMisc            0      0.00%     71.55% # Number of instructions issued per FU type, per thread (Count)
system.cpu0.statIssuedInstType_0::SimdFloatMult            0      0.00%     71.55% # Number of instructions issued per FU type, per thread (Count)
system.cpu0.statIssuedInstType_0::SimdFloatMultAcc            0      0.00%     71.55% # Number of instructions issued per FU type, per thread (Count)
system.cpu0.statIssuedInstType_0::SimdFloatMatMultAcc            0      0.00%     71.55% # Number of instructions issued per FU type, per thread (Count)
system.cpu0.statIssuedInstType_0::SimdFloatSqrt            0      0.00%     71.55% # Number of instructions issued per FU type, per thread (Count)
system.cpu0.statIssuedInstType_0::SimdReduceAdd            0      0.00%     71.55% # Number of instructions issued per FU type, per thread (Count)
system.cpu0.statIssuedInstType_0::SimdReduceAlu            0      0.00%     71.55% # Number of instructions issued per FU type, per thread (Count)
system.cpu0.statIssuedInstType_0::SimdReduceCmp            0      0.00%     71.55% # Number of instructions issued per FU type, per thread (Count)
system.cpu0.statIssuedInstType_0::SimdFloatReduceAdd            0      0.00%     71.55% # Number of instructions issued per FU type, per thread (Count)
system.cpu0.statIssuedInstType_0::SimdFloatReduceCmp            0      0.00%     71.55% # Number of instructions issued per FU type, per thread (Count)
system.cpu0.statIssuedInstType_0::SimdAes            0      0.00%     71.55% # Number of instructions issued per FU type, per thread (Count)
system.cpu0.statIssuedInstType_0::SimdAesMix            0      0.00%     71.55% # Number of instructions issued per FU type, per thread (Count)
system.cpu0.statIssuedInstType_0::SimdSha1Hash            0      0.00%     71.55% # Number of instructions issued per FU type, per thread (Count)
system.cpu0.statIssuedInstType_0::SimdSha1Hash2            0      0.00%     71.55% # Number of instructions issued per FU type, per thread (Count)
system.cpu0.statIssuedInstType_0::SimdSha256Hash            0      0.00%     71.55% # Number of instructions issued per FU type, per thread (Count)
system.cpu0.statIssuedInstType_0::SimdSha256Hash2            0      0.00%     71.55% # Number of instructions issued per FU type, per thread (Count)
system.cpu0.statIssuedInstType_0::SimdShaSigma2            0      0.00%     71.55% # Number of instructions issued per FU type, per thread (Count)
system.cpu0.statIssuedInstType_0::SimdShaSigma3            0      0.00%     71.55% # Number of instructions issued per FU type, per thread (Count)
system.cpu0.statIssuedInstType_0::SimdPredAlu            0      0.00%     71.55% # Number of instructions issued per FU type, per thread (Count)
system.cpu0.statIssuedInstType_0::Matrix            0      0.00%     71.55% # Number of instructions issued per FU type, per thread (Count)
system.cpu0.statIssuedInstType_0::MatrixMov            0      0.00%     71.55% # Number of instructions issued per FU type, per thread (Count)
system.cpu0.statIssuedInstType_0::MatrixOP            0      0.00%     71.55% # Number of instructions issued per FU type, per thread (Count)
system.cpu0.statIssuedInstType_0::MemRead       839100     11.39%     82.95% # Number of instructions issued per FU type, per thread (Count)
system.cpu0.statIssuedInstType_0::MemWrite       835575     11.35%     94.29% # Number of instructions issued per FU type, per thread (Count)
system.cpu0.statIssuedInstType_0::FloatMemRead         1171      0.02%     94.31% # Number of instructions issued per FU type, per thread (Count)
system.cpu0.statIssuedInstType_0::FloatMemWrite       419061      5.69%    100.00% # Number of instructions issued per FU type, per thread (Count)
system.cpu0.statIssuedInstType_0::IprAccess            0      0.00%    100.00% # Number of instructions issued per FU type, per thread (Count)
system.cpu0.statIssuedInstType_0::InstPrefetch            0      0.00%    100.00% # Number of instructions issued per FU type, per thread (Count)
system.cpu0.statIssuedInstType_0::SimdUnitStrideLoad            0      0.00%    100.00% # Number of instructions issued per FU type, per thread (Count)
system.cpu0.statIssuedInstType_0::SimdUnitStrideStore            0      0.00%    100.00% # Number of instructions issued per FU type, per thread (Count)
system.cpu0.statIssuedInstType_0::SimdUnitStrideMaskLoad            0      0.00%    100.00% # Number of instructions issued per FU type, per thread (Count)
system.cpu0.statIssuedInstType_0::SimdUnitStrideMaskStore            0      0.00%    100.00% # Number of instructions issued per FU type, per thread (Count)
system.cpu0.statIssuedInstType_0::SimdStridedLoad            0      0.00%    100.00% # Number of instructions issued per FU type, per thread (Count)
system.cpu0.statIssuedInstType_0::SimdStridedStore            0      0.00%    100.00% # Number of instructions issued per FU type, per thread (Count)
system.cpu0.statIssuedInstType_0::SimdIndexedLoad            0      0.00%    100.00% # Number of instructions issued per FU type, per thread (Count)
system.cpu0.statIssuedInstType_0::SimdIndexedStore            0      0.00%    100.00% # Number of instructions issued per FU type, per thread (Count)
system.cpu0.statIssuedInstType_0::SimdWholeRegisterLoad            0      0.00%    100.00% # Number of instructions issued per FU type, per thread (Count)
system.cpu0.statIssuedInstType_0::SimdWholeRegisterStore            0      0.00%    100.00% # Number of instructions issued per FU type, per thread (Count)
system.cpu0.statIssuedInstType_0::SimdUnitStrideFaultOnlyFirstLoad            0      0.00%    100.00% # Number of instructions issued per FU type, per thread (Count)
system.cpu0.statIssuedInstType_0::SimdUnitStrideSegmentedLoad            0      0.00%    100.00% # Number of instructions issued per FU type, per thread (Count)
system.cpu0.statIssuedInstType_0::SimdUnitStrideSegmentedStore            0      0.00%    100.00% # Number of instructions issued per FU type, per thread (Count)
system.cpu0.statIssuedInstType_0::SimdExt            0      0.00%    100.00% # Number of instructions issued per FU type, per thread (Count)
system.cpu0.statIssuedInstType_0::SimdFloatExt            0      0.00%    100.00% # Number of instructions issued per FU type, per thread (Count)
system.cpu0.statIssuedInstType_0::SimdConfig            0      0.00%    100.00% # Number of instructions issued per FU type, per thread (Count)
system.cpu0.statIssuedInstType_0::total       7364196                       # Number of instructions issued per FU type, per thread (Count)
system.cpu0.issueRate                        2.037670                       # Inst issue rate ((Count/Cycle))
system.cpu0.fuBusy                               4213                       # FU busy when requested (Count)
system.cpu0.fuBusyRate                       0.000572                       # FU busy rate (busy events/executed inst) ((Count/Count))
system.cpu0.intInstQueueReads                17026529                       # Number of integer instruction queue reads (Count)
system.cpu0.intInstQueueWrites                7114900                       # Number of integer instruction queue writes (Count)
system.cpu0.intInstQueueWakeupAccesses        6722015                       # Number of integer instruction queue wakeup accesses (Count)
system.cpu0.fpInstQueueReads                  1258364                       # Number of floating instruction queue reads (Count)
system.cpu0.fpInstQueueWrites                  666558                       # Number of floating instruction queue writes (Count)
system.cpu0.fpInstQueueWakeupAccesses          606495                       # Number of floating instruction queue wakeup accesses (Count)
system.cpu0.vecInstQueueReads                       0                       # Number of vector instruction queue reads (Count)
system.cpu0.vecInstQueueWrites                      0                       # Number of vector instruction queue writes (Count)
system.cpu0.vecInstQueueWakeupAccesses              0                       # Number of vector instruction queue wakeup accesses (Count)
system.cpu0.intAluAccesses                    6633437                       # Number of integer alu accesses (Count)
system.cpu0.fpAluAccesses                      629670                       # Number of floating point alu accesses (Count)
system.cpu0.vecAluAccesses                          0                       # Number of vector alu accesses (Count)
system.cpu0.numSquashedInsts                     1473                       # Number of squashed instructions skipped in execute (Count)
system.cpu0.numSwp                                  0                       # Number of swp insts executed (Count)
system.cpu0.timesIdled                            435                       # Number of times that the entire CPU went into an idle state and unscheduled itself (Count)
system.cpu0.idleCycles                          63344                       # Total number of cycles that the CPU has spent unscheduled due to idling (Cycle)
system.cpu0.MemDepUnit__0.insertedLoads        841903                       # Number of loads inserted to the mem dependence unit. (Count)
system.cpu0.MemDepUnit__0.insertedStores      1258047                       # Number of stores inserted to the mem dependence unit. (Count)
system.cpu0.MemDepUnit__0.conflictingLoads         4157                       # Number of conflicting loads. (Count)
system.cpu0.MemDepUnit__0.conflictingStores         5288                       # Number of conflicting stores. (Count)
system.cpu0.MemDepUnit__1.insertedLoads             0                       # Number of loads inserted to the mem dependence unit. (Count)
system.cpu0.MemDepUnit__1.insertedStores            0                       # Number of stores inserted to the mem dependence unit. (Count)
system.cpu0.MemDepUnit__1.conflictingLoads            0                       # Number of conflicting loads. (Count)
system.cpu0.MemDepUnit__1.conflictingStores            0                       # Number of conflicting stores. (Count)
system.cpu0.MemDepUnit__2.insertedLoads             0                       # Number of loads inserted to the mem dependence unit. (Count)
system.cpu0.MemDepUnit__2.insertedStores            0                       # Number of stores inserted to the mem dependence unit. (Count)
system.cpu0.MemDepUnit__2.conflictingLoads            0                       # Number of conflicting loads. (Count)
system.cpu0.MemDepUnit__2.conflictingStores            0                       # Number of conflicting stores. (Count)
system.cpu0.MemDepUnit__3.insertedLoads             0                       # Number of loads inserted to the mem dependence unit. (Count)
system.cpu0.MemDepUnit__3.insertedStores            0                       # Number of stores inserted to the mem dependence unit. (Count)
system.cpu0.MemDepUnit__3.conflictingLoads            0                       # Number of conflicting loads. (Count)
system.cpu0.MemDepUnit__3.conflictingStores            0                       # Number of conflicting stores. (Count)
system.cpu0.branchPred.lookups_0::NoBranch            8      0.00%      0.00% # Number of BP lookups (Count)
system.cpu0.branchPred.lookups_0::Return       106293     16.58%     16.58% # Number of BP lookups (Count)
system.cpu0.branchPred.lookups_0::CallDirect       106361     16.59%     33.17% # Number of BP lookups (Count)
system.cpu0.branchPred.lookups_0::CallIndirect           42      0.01%     33.18% # Number of BP lookups (Count)
system.cpu0.branchPred.lookups_0::DirectCond       323305     50.43%     83.61% # Number of BP lookups (Count)
system.cpu0.branchPred.lookups_0::DirectUncond       104939     16.37%     99.98% # Number of BP lookups (Count)
system.cpu0.branchPred.lookups_0::IndirectCond            0      0.00%     99.98% # Number of BP lookups (Count)
system.cpu0.branchPred.lookups_0::IndirectUncond          135      0.02%    100.00% # Number of BP lookups (Count)
system.cpu0.branchPred.lookups_0::total        641083                       # Number of BP lookups (Count)
system.cpu0.branchPred.squashes_0::NoBranch            8      0.02%      0.02% # Number of branches that got squashed (completely removed) as an earlier branch was mispredicted. (Count)
system.cpu0.branchPred.squashes_0::Return         6440     15.72%     15.74% # Number of branches that got squashed (completely removed) as an earlier branch was mispredicted. (Count)
system.cpu0.branchPred.squashes_0::CallDirect         6519     15.91%     31.65% # Number of branches that got squashed (completely removed) as an earlier branch was mispredicted. (Count)
system.cpu0.branchPred.squashes_0::CallIndirect           24      0.06%     31.71% # Number of branches that got squashed (completely removed) as an earlier branch was mispredicted. (Count)
system.cpu0.branchPred.squashes_0::DirectCond        21657     52.86%     84.57% # Number of branches that got squashed (completely removed) as an earlier branch was mispredicted. (Count)
system.cpu0.branchPred.squashes_0::DirectUncond         6252     15.26%     99.83% # Number of branches that got squashed (completely removed) as an earlier branch was mispredicted. (Count)
system.cpu0.branchPred.squashes_0::IndirectCond            0      0.00%     99.83% # Number of branches that got squashed (completely removed) as an earlier branch was mispredicted. (Count)
system.cpu0.branchPred.squashes_0::IndirectUncond           69      0.17%    100.00% # Number of branches that got squashed (completely removed) as an earlier branch was mispredicted. (Count)
system.cpu0.branchPred.squashes_0::total        40969                       # Number of branches that got squashed (completely removed) as an earlier branch was mispredicted. (Count)
system.cpu0.branchPred.corrected_0::NoBranch            0      0.00%      0.00% # Number of branches that got corrected but not yet commited. Branches get corrected by decode or after execute. Also a branch misprediction can be detected out-of-order. Therefore, a corrected branch might not end up beeing committed in case an even earlier branch was mispredicted (Count)
system.cpu0.branchPred.corrected_0::Return            1      0.09%      0.09% # Number of branches that got corrected but not yet commited. Branches get corrected by decode or after execute. Also a branch misprediction can be detected out-of-order. Therefore, a corrected branch might not end up beeing committed in case an even earlier branch was mispredicted (Count)
system.cpu0.branchPred.corrected_0::CallDirect          241     22.36%     22.45% # Number of branches that got corrected but not yet commited. Branches get corrected by decode or after execute. Also a branch misprediction can be detected out-of-order. Therefore, a corrected branch might not end up beeing committed in case an even earlier branch was mispredicted (Count)
system.cpu0.branchPred.corrected_0::CallIndirect           19      1.76%     24.21% # Number of branches that got corrected but not yet commited. Branches get corrected by decode or after execute. Also a branch misprediction can be detected out-of-order. Therefore, a corrected branch might not end up beeing committed in case an even earlier branch was mispredicted (Count)
system.cpu0.branchPred.corrected_0::DirectCond          619     57.42%     81.63% # Number of branches that got corrected but not yet commited. Branches get corrected by decode or after execute. Also a branch misprediction can be detected out-of-order. Therefore, a corrected branch might not end up beeing committed in case an even earlier branch was mispredicted (Count)
system.cpu0.branchPred.corrected_0::DirectUncond          156     14.47%     96.10% # Number of branches that got corrected but not yet commited. Branches get corrected by decode or after execute. Also a branch misprediction can be detected out-of-order. Therefore, a corrected branch might not end up beeing committed in case an even earlier branch was mispredicted (Count)
system.cpu0.branchPred.corrected_0::IndirectCond            0      0.00%     96.10% # Number of branches that got corrected but not yet commited. Branches get corrected by decode or after execute. Also a branch misprediction can be detected out-of-order. Therefore, a corrected branch might not end up beeing committed in case an even earlier branch was mispredicted (Count)
system.cpu0.branchPred.corrected_0::IndirectUncond           42      3.90%    100.00% # Number of branches that got corrected but not yet commited. Branches get corrected by decode or after execute. Also a branch misprediction can be detected out-of-order. Therefore, a corrected branch might not end up beeing committed in case an even earlier branch was mispredicted (Count)
system.cpu0.branchPred.corrected_0::total         1078                       # Number of branches that got corrected but not yet commited. Branches get corrected by decode or after execute. Also a branch misprediction can be detected out-of-order. Therefore, a corrected branch might not end up beeing committed in case an even earlier branch was mispredicted (Count)
system.cpu0.branchPred.earlyResteers_0::NoBranch            0                       # Number of branches that got redirected after decode. (Count)
system.cpu0.branchPred.earlyResteers_0::Return            0                       # Number of branches that got redirected after decode. (Count)
system.cpu0.branchPred.earlyResteers_0::CallDirect            0                       # Number of branches that got redirected after decode. (Count)
system.cpu0.branchPred.earlyResteers_0::CallIndirect            0                       # Number of branches that got redirected after decode. (Count)
system.cpu0.branchPred.earlyResteers_0::DirectCond            0                       # Number of branches that got redirected after decode. (Count)
system.cpu0.branchPred.earlyResteers_0::DirectUncond            0                       # Number of branches that got redirected after decode. (Count)
system.cpu0.branchPred.earlyResteers_0::IndirectCond            0                       # Number of branches that got redirected after decode. (Count)
system.cpu0.branchPred.earlyResteers_0::IndirectUncond            0                       # Number of branches that got redirected after decode. (Count)
system.cpu0.branchPred.earlyResteers_0::total            0                       # Number of branches that got redirected after decode. (Count)
system.cpu0.branchPred.committed_0::NoBranch            0      0.00%      0.00% # Number of branches finally committed  (Count)
system.cpu0.branchPred.committed_0::Return        99853     16.64%     16.64% # Number of branches finally committed  (Count)
system.cpu0.branchPred.committed_0::CallDirect        99841     16.64%     33.28% # Number of branches finally committed  (Count)
system.cpu0.branchPred.committed_0::CallIndirect           18      0.00%     33.28% # Number of branches finally committed  (Count)
system.cpu0.branchPred.committed_0::DirectCond       301648     50.27%     83.54% # Number of branches finally committed  (Count)
system.cpu0.branchPred.committed_0::DirectUncond        98687     16.44%     99.99% # Number of branches finally committed  (Count)
system.cpu0.branchPred.committed_0::IndirectCond            0      0.00%     99.99% # Number of branches finally committed  (Count)
system.cpu0.branchPred.committed_0::IndirectUncond           66      0.01%    100.00% # Number of branches finally committed  (Count)
system.cpu0.branchPred.committed_0::total       600113                       # Number of branches finally committed  (Count)
system.cpu0.branchPred.mispredicted_0::NoBranch            0      0.00%      0.00% # Number of committed branches that were mispredicted. (Count)
system.cpu0.branchPred.mispredicted_0::Return            0      0.00%      0.00% # Number of committed branches that were mispredicted. (Count)
system.cpu0.branchPred.mispredicted_0::CallDirect          126     16.82%     16.82% # Number of committed branches that were mispredicted. (Count)
system.cpu0.branchPred.mispredicted_0::CallIndirect           18      2.40%     19.23% # Number of committed branches that were mispredicted. (Count)
system.cpu0.branchPred.mispredicted_0::DirectCond          486     64.89%     84.11% # Number of committed branches that were mispredicted. (Count)
system.cpu0.branchPred.mispredicted_0::DirectUncond           78     10.41%     94.53% # Number of committed branches that were mispredicted. (Count)
system.cpu0.branchPred.mispredicted_0::IndirectCond            0      0.00%     94.53% # Number of committed branches that were mispredicted. (Count)
system.cpu0.branchPred.mispredicted_0::IndirectUncond           41      5.47%    100.00% # Number of committed branches that were mispredicted. (Count)
system.cpu0.branchPred.mispredicted_0::total          749                       # Number of committed branches that were mispredicted. (Count)
system.cpu0.branchPred.targetProvider_0::NoTarget       111735     17.43%     17.43% # The component providing the target for taken branches (Count)
system.cpu0.branchPred.targetProvider_0::BTB       423006     65.98%     83.41% # The component providing the target for taken branches (Count)
system.cpu0.branchPred.targetProvider_0::RAS       106293     16.58%     99.99% # The component providing the target for taken branches (Count)
system.cpu0.branchPred.targetProvider_0::Indirect           49      0.01%    100.00% # The component providing the target for taken branches (Count)
system.cpu0.branchPred.targetProvider_0::total       641083                       # The component providing the target for taken branches (Count)
system.cpu0.branchPred.targetWrong_0::NoBranch          949     88.53%     88.53% # Number of branches where the target was incorrect or not available at prediction time. (Count)
system.cpu0.branchPred.targetWrong_0::Return          122     11.38%     99.91% # Number of branches where the target was incorrect or not available at prediction time. (Count)
system.cpu0.branchPred.targetWrong_0::CallDirect            1      0.09%    100.00% # Number of branches where the target was incorrect or not available at prediction time. (Count)
system.cpu0.branchPred.targetWrong_0::CallIndirect            0      0.00%    100.00% # Number of branches where the target was incorrect or not available at prediction time. (Count)
system.cpu0.branchPred.targetWrong_0::DirectCond            0      0.00%    100.00% # Number of branches where the target was incorrect or not available at prediction time. (Count)
system.cpu0.branchPred.targetWrong_0::DirectUncond            0      0.00%    100.00% # Number of branches where the target was incorrect or not available at prediction time. (Count)
system.cpu0.branchPred.targetWrong_0::IndirectCond            0      0.00%    100.00% # Number of branches where the target was incorrect or not available at prediction time. (Count)
system.cpu0.branchPred.targetWrong_0::IndirectUncond            0      0.00%    100.00% # Number of branches where the target was incorrect or not available at prediction time. (Count)
system.cpu0.branchPred.targetWrong_0::total         1072                       # Number of branches where the target was incorrect or not available at prediction time. (Count)
system.cpu0.branchPred.condPredicted           323313                       # Number of conditional branches predicted (Count)
system.cpu0.branchPred.condPredictedTaken       212273                       # Number of conditional branches predicted as taken (Count)
system.cpu0.branchPred.condIncorrect             1078                       # Number of conditional branches incorrect (Count)
system.cpu0.branchPred.predTakenBTBMiss           400                       # Number of branches predicted taken but missed in BTB (Count)
system.cpu0.branchPred.NotTakenMispredicted          956                       # Number branches predicted 'not taken' but turned out to be taken (Count)
system.cpu0.branchPred.TakenMispredicted          122                       # Number branches predicted taken but are actually not taken (Count)
system.cpu0.branchPred.BTBLookups              641083                       # Number of BTB lookups (Count)
system.cpu0.branchPred.BTBUpdates                 894                       # Number of BTB updates (Count)
system.cpu0.branchPred.BTBHits                 424038                       # Number of BTB hits (Count)
system.cpu0.branchPred.BTBHitRatio           0.661440                       # BTB Hit Ratio (Ratio)
system.cpu0.branchPred.BTBMispredicted            742                       # Number BTB mispredictions. No target found or target wrong (Count)
system.cpu0.branchPred.indirectLookups            177                       # Number of indirect predictor lookups. (Count)
system.cpu0.branchPred.indirectHits                49                       # Number of indirect target hits. (Count)
system.cpu0.branchPred.indirectMisses             128                       # Number of indirect misses. (Count)
system.cpu0.branchPred.indirectMispredicted            0                       # Number of mispredicted indirect branches. (Count)
system.cpu0.branchPred.btb.lookups::NoBranch            8      0.00%      0.00% # Number of BTB lookups (Count)
system.cpu0.branchPred.btb.lookups::Return       106293     16.58%     16.58% # Number of BTB lookups (Count)
system.cpu0.branchPred.btb.lookups::CallDirect       106361     16.59%     33.17% # Number of BTB lookups (Count)
system.cpu0.branchPred.btb.lookups::CallIndirect           42      0.01%     33.18% # Number of BTB lookups (Count)
system.cpu0.branchPred.btb.lookups::DirectCond       323305     50.43%     83.61% # Number of BTB lookups (Count)
system.cpu0.branchPred.btb.lookups::DirectUncond       104939     16.37%     99.98% # Number of BTB lookups (Count)
system.cpu0.branchPred.btb.lookups::IndirectCond            0      0.00%     99.98% # Number of BTB lookups (Count)
system.cpu0.branchPred.btb.lookups::IndirectUncond          135      0.02%    100.00% # Number of BTB lookups (Count)
system.cpu0.branchPred.btb.lookups::total       641083                       # Number of BTB lookups (Count)
system.cpu0.branchPred.btb.misses::NoBranch            8      0.00%      0.00% # Number of BTB misses (Count)
system.cpu0.branchPred.btb.misses::Return       106282     48.97%     48.97% # Number of BTB misses (Count)
system.cpu0.branchPred.btb.misses::CallDirect          309      0.14%     49.11% # Number of BTB misses (Count)
system.cpu0.branchPred.btb.misses::CallIndirect           42      0.02%     49.13% # Number of BTB misses (Count)
system.cpu0.branchPred.btb.misses::DirectCond       110062     50.71%     99.84% # Number of BTB misses (Count)
system.cpu0.branchPred.btb.misses::DirectUncond          207      0.10%     99.94% # Number of BTB misses (Count)
system.cpu0.branchPred.btb.misses::IndirectCond            0      0.00%     99.94% # Number of BTB misses (Count)
system.cpu0.branchPred.btb.misses::IndirectUncond          135      0.06%    100.00% # Number of BTB misses (Count)
system.cpu0.branchPred.btb.misses::total       217045                       # Number of BTB misses (Count)
system.cpu0.branchPred.btb.updates::NoBranch            0      0.00%      0.00% # Number of BTB updates (Count)
system.cpu0.branchPred.btb.updates::Return            0      0.00%      0.00% # Number of BTB updates (Count)
system.cpu0.branchPred.btb.updates::CallDirect          241     26.96%     26.96% # Number of BTB updates (Count)
system.cpu0.branchPred.btb.updates::CallIndirect            0      0.00%     26.96% # Number of BTB updates (Count)
system.cpu0.branchPred.btb.updates::DirectCond          497     55.59%     82.55% # Number of BTB updates (Count)
system.cpu0.branchPred.btb.updates::DirectUncond          156     17.45%    100.00% # Number of BTB updates (Count)
system.cpu0.branchPred.btb.updates::IndirectCond            0      0.00%    100.00% # Number of BTB updates (Count)
system.cpu0.branchPred.btb.updates::IndirectUncond            0      0.00%    100.00% # Number of BTB updates (Count)
system.cpu0.branchPred.btb.updates::total          894                       # Number of BTB updates (Count)
system.cpu0.branchPred.btb.mispredict::NoBranch            0      0.00%      0.00% # Number of BTB mispredictions. No target found or target wrong. (Count)
system.cpu0.branchPred.btb.mispredict::Return            0      0.00%      0.00% # Number of BTB mispredictions. No target found or target wrong. (Count)
system.cpu0.branchPred.btb.mispredict::CallDirect          241     26.96%     26.96% # Number of BTB mispredictions. No target found or target wrong. (Count)
system.cpu0.branchPred.btb.mispredict::CallIndirect            0      0.00%     26.96% # Number of BTB mispredictions. No target found or target wrong. (Count)
system.cpu0.branchPred.btb.mispredict::DirectCond          497     55.59%     82.55% # Number of BTB mispredictions. No target found or target wrong. (Count)
system.cpu0.branchPred.btb.mispredict::DirectUncond          156     17.45%    100.00% # Number of BTB mispredictions. No target found or target wrong. (Count)
system.cpu0.branchPred.btb.mispredict::IndirectCond            0      0.00%    100.00% # Number of BTB mispredictions. No target found or target wrong. (Count)
system.cpu0.branchPred.btb.mispredict::IndirectUncond            0      0.00%    100.00% # Number of BTB mispredictions. No target found or target wrong. (Count)
system.cpu0.branchPred.btb.mispredict::total          894                       # Number of BTB mispredictions. No target found or target wrong. (Count)
system.cpu0.branchPred.btb.power_state.pwrStateResidencyTicks::UNDEFINED   2714928300                       # Cumulative time (in ticks) in various power states (Tick)
system.cpu0.branchPred.indirectBranchPred.lookups          177                       # Number of lookups (Count)
system.cpu0.branchPred.indirectBranchPred.hits           49                       # Number of hits of a tag (Count)
system.cpu0.branchPred.indirectBranchPred.misses          128                       # Number of misses (Count)
system.cpu0.branchPred.indirectBranchPred.targetRecords           61                       # Number of targets that where recorded/installed in the cache (Count)
system.cpu0.branchPred.indirectBranchPred.indirectRecords          238                       # Number of indirect branches/calls recorded in the indirect hist (Count)
system.cpu0.branchPred.indirectBranchPred.speculativeOverflows            0                       # Number of times more than the allowed capacity for speculative branches/calls where in flight and destroy the path history (Count)
system.cpu0.branchPred.loop_predictor.used            0                       # Number of times the loop predictor is the provider. (Count)
system.cpu0.branchPred.loop_predictor.correct            0                       # Number of times the loop predictor is the provider and the prediction is correct (Count)
system.cpu0.branchPred.loop_predictor.wrong            0                       # Number of times the loop predictor is the provider and the prediction is wrong (Count)
system.cpu0.branchPred.ras.pushes              112843                       # Number of times a PC was pushed onto the RAS (Count)
system.cpu0.branchPred.ras.pops                112836                       # Number of times a PC was poped from the RAS (Count)
system.cpu0.branchPred.ras.squashes             12983                       # Number of times the stack operation was squashed due to wrong speculation. (Count)
system.cpu0.branchPred.ras.used                 99853                       # Number of times the RAS is the provider (Count)
system.cpu0.branchPred.ras.correct              99853                       # Number of times the RAS is the provider and the prediction is correct (Count)
system.cpu0.branchPred.ras.incorrect                0                       # Number of times the RAS is the provider and the prediction is wrong (Count)
system.cpu0.branchPred.statistical_corrector.correct       101830                       # Number of time the SC predictor is the provider and the prediction is correct (Count)
system.cpu0.branchPred.statistical_corrector.wrong       199818                       # Number of time the SC predictor is the provider and the prediction is wrong (Count)
system.cpu0.branchPred.tage.longestMatchProviderCorrect        23830                       # Number of times TAGE Longest Match is the provider and the prediction is correct (Count)
system.cpu0.branchPred.tage.altMatchProviderCorrect           98                       # Number of times TAGE Alt Match is the provider and the prediction is correct (Count)
system.cpu0.branchPred.tage.bimodalAltMatchProviderCorrect           37                       # Number of times TAGE Alt Match is the bimodal and it is the provider and the prediction is correct (Count)
system.cpu0.branchPred.tage.bimodalProviderCorrect       277178                       # Number of times there are no hits on the TAGE tables and the bimodal prediction is correct (Count)
system.cpu0.branchPred.tage.longestMatchProviderWrong           15                       # Number of times TAGE Longest Match is the provider and the prediction is wrong (Count)
system.cpu0.branchPred.tage.altMatchProviderWrong           33                       # Number of times TAGE Alt Match is the provider and the prediction is wrong (Count)
system.cpu0.branchPred.tage.bimodalAltMatchProviderWrong            8                       # Number of times TAGE Alt Match is the bimodal and it is the provider and the prediction is wrong (Count)
system.cpu0.branchPred.tage.bimodalProviderWrong          448                       # Number of times there are no hits on the TAGE tables and the bimodal prediction is wrong (Count)
system.cpu0.branchPred.tage.altMatchProviderWouldHaveHit            4                       # Number of times TAGE Longest Match is the provider, the prediction is wrong and Alt Match prediction was correct (Count)
system.cpu0.branchPred.tage.longestMatchProviderWouldHaveHit            8                       # Number of times TAGE Alt Match is the provider, the prediction is wrong and Longest Match prediction was correct (Count)
system.cpu0.branchPred.tage.longestMatchProvider::0            0                       # TAGE provider for longest match (Count)
system.cpu0.branchPred.tage.longestMatchProvider::1            0                       # TAGE provider for longest match (Count)
system.cpu0.branchPred.tage.longestMatchProvider::2        21939                       # TAGE provider for longest match (Count)
system.cpu0.branchPred.tage.longestMatchProvider::3            0                       # TAGE provider for longest match (Count)
system.cpu0.branchPred.tage.longestMatchProvider::4            0                       # TAGE provider for longest match (Count)
system.cpu0.branchPred.tage.longestMatchProvider::5            0                       # TAGE provider for longest match (Count)
system.cpu0.branchPred.tage.longestMatchProvider::6          181                       # TAGE provider for longest match (Count)
system.cpu0.branchPred.tage.longestMatchProvider::7            0                       # TAGE provider for longest match (Count)
system.cpu0.branchPred.tage.longestMatchProvider::8            0                       # TAGE provider for longest match (Count)
system.cpu0.branchPred.tage.longestMatchProvider::9           33                       # TAGE provider for longest match (Count)
system.cpu0.branchPred.tage.longestMatchProvider::10           32                       # TAGE provider for longest match (Count)
system.cpu0.branchPred.tage.longestMatchProvider::11            0                       # TAGE provider for longest match (Count)
system.cpu0.branchPred.tage.longestMatchProvider::12         1729                       # TAGE provider for longest match (Count)
system.cpu0.branchPred.tage.longestMatchProvider::13            0                       # TAGE provider for longest match (Count)
system.cpu0.branchPred.tage.longestMatchProvider::14           11                       # TAGE provider for longest match (Count)
system.cpu0.branchPred.tage.longestMatchProvider::15            0                       # TAGE provider for longest match (Count)
system.cpu0.branchPred.tage.longestMatchProvider::16            0                       # TAGE provider for longest match (Count)
system.cpu0.branchPred.tage.longestMatchProvider::17            0                       # TAGE provider for longest match (Count)
system.cpu0.branchPred.tage.longestMatchProvider::18            1                       # TAGE provider for longest match (Count)
system.cpu0.branchPred.tage.longestMatchProvider::19           15                       # TAGE provider for longest match (Count)
system.cpu0.branchPred.tage.longestMatchProvider::20            0                       # TAGE provider for longest match (Count)
system.cpu0.branchPred.tage.longestMatchProvider::21            0                       # TAGE provider for longest match (Count)
system.cpu0.branchPred.tage.longestMatchProvider::22            2                       # TAGE provider for longest match (Count)
system.cpu0.branchPred.tage.longestMatchProvider::23            0                       # TAGE provider for longest match (Count)
system.cpu0.branchPred.tage.longestMatchProvider::24            7                       # TAGE provider for longest match (Count)
system.cpu0.branchPred.tage.longestMatchProvider::25            0                       # TAGE provider for longest match (Count)
system.cpu0.branchPred.tage.longestMatchProvider::26            0                       # TAGE provider for longest match (Count)
system.cpu0.branchPred.tage.longestMatchProvider::27            0                       # TAGE provider for longest match (Count)
system.cpu0.branchPred.tage.longestMatchProvider::28           21                       # TAGE provider for longest match (Count)
system.cpu0.branchPred.tage.longestMatchProvider::29            0                       # TAGE provider for longest match (Count)
system.cpu0.branchPred.tage.longestMatchProvider::30            0                       # TAGE provider for longest match (Count)
system.cpu0.branchPred.tage.longestMatchProvider::31            0                       # TAGE provider for longest match (Count)
system.cpu0.branchPred.tage.longestMatchProvider::32            5                       # TAGE provider for longest match (Count)
system.cpu0.branchPred.tage.longestMatchProvider::33            0                       # TAGE provider for longest match (Count)
system.cpu0.branchPred.tage.longestMatchProvider::34            0                       # TAGE provider for longest match (Count)
system.cpu0.branchPred.tage.longestMatchProvider::35            0                       # TAGE provider for longest match (Count)
system.cpu0.branchPred.tage.longestMatchProvider::36            0                       # TAGE provider for longest match (Count)
system.cpu0.branchPred.tage.altMatchProvider::0        21965                       # TAGE provider for alt match (Count)
system.cpu0.branchPred.tage.altMatchProvider::1            0                       # TAGE provider for alt match (Count)
system.cpu0.branchPred.tage.altMatchProvider::2          155                       # TAGE provider for alt match (Count)
system.cpu0.branchPred.tage.altMatchProvider::3            0                       # TAGE provider for alt match (Count)
system.cpu0.branchPred.tage.altMatchProvider::4            0                       # TAGE provider for alt match (Count)
system.cpu0.branchPred.tage.altMatchProvider::5            0                       # TAGE provider for alt match (Count)
system.cpu0.branchPred.tage.altMatchProvider::6           52                       # TAGE provider for alt match (Count)
system.cpu0.branchPred.tage.altMatchProvider::7            0                       # TAGE provider for alt match (Count)
system.cpu0.branchPred.tage.altMatchProvider::8            0                       # TAGE provider for alt match (Count)
system.cpu0.branchPred.tage.altMatchProvider::9           13                       # TAGE provider for alt match (Count)
system.cpu0.branchPred.tage.altMatchProvider::10           10                       # TAGE provider for alt match (Count)
system.cpu0.branchPred.tage.altMatchProvider::11         1728                       # TAGE provider for alt match (Count)
system.cpu0.branchPred.tage.altMatchProvider::12            0                       # TAGE provider for alt match (Count)
system.cpu0.branchPred.tage.altMatchProvider::13            2                       # TAGE provider for alt match (Count)
system.cpu0.branchPred.tage.altMatchProvider::14            0                       # TAGE provider for alt match (Count)
system.cpu0.branchPred.tage.altMatchProvider::15           15                       # TAGE provider for alt match (Count)
system.cpu0.branchPred.tage.altMatchProvider::16            0                       # TAGE provider for alt match (Count)
system.cpu0.branchPred.tage.altMatchProvider::17            1                       # TAGE provider for alt match (Count)
system.cpu0.branchPred.tage.altMatchProvider::18            0                       # TAGE provider for alt match (Count)
system.cpu0.branchPred.tage.altMatchProvider::19            7                       # TAGE provider for alt match (Count)
system.cpu0.branchPred.tage.altMatchProvider::20            0                       # TAGE provider for alt match (Count)
system.cpu0.branchPred.tage.altMatchProvider::21            2                       # TAGE provider for alt match (Count)
system.cpu0.branchPred.tage.altMatchProvider::22            0                       # TAGE provider for alt match (Count)
system.cpu0.branchPred.tage.altMatchProvider::23            0                       # TAGE provider for alt match (Count)
system.cpu0.branchPred.tage.altMatchProvider::24           21                       # TAGE provider for alt match (Count)
system.cpu0.branchPred.tage.altMatchProvider::25            0                       # TAGE provider for alt match (Count)
system.cpu0.branchPred.tage.altMatchProvider::26            0                       # TAGE provider for alt match (Count)
system.cpu0.branchPred.tage.altMatchProvider::27            0                       # TAGE provider for alt match (Count)
system.cpu0.branchPred.tage.altMatchProvider::28            5                       # TAGE provider for alt match (Count)
system.cpu0.branchPred.tage.altMatchProvider::29            0                       # TAGE provider for alt match (Count)
system.cpu0.branchPred.tage.altMatchProvider::30            0                       # TAGE provider for alt match (Count)
system.cpu0.branchPred.tage.altMatchProvider::31            0                       # TAGE provider for alt match (Count)
system.cpu0.branchPred.tage.altMatchProvider::32            0                       # TAGE provider for alt match (Count)
system.cpu0.branchPred.tage.altMatchProvider::33            0                       # TAGE provider for alt match (Count)
system.cpu0.branchPred.tage.altMatchProvider::34            0                       # TAGE provider for alt match (Count)
system.cpu0.branchPred.tage.altMatchProvider::35            0                       # TAGE provider for alt match (Count)
system.cpu0.branchPred.tage.altMatchProvider::36            0                       # TAGE provider for alt match (Count)
system.cpu0.clk_domain.clock                      294                       # Clock period in ticks (Tick)
system.cpu0.commit.commitSquashedInsts         399394                       # The number of squashed insts skipped by commit (Count)
system.cpu0.commit.commitNonSpecStalls            555                       # The number of times commit has been forced to stall to communicate backwards (Count)
system.cpu0.commit.branchMispredicts              796                       # The number of times a branch was mispredicted (Count)
system.cpu0.commit.numCommittedDist::samples      3499458                       # Number of insts commited each cycle (Count)
system.cpu0.commit.numCommittedDist::mean     1.993482                       # Number of insts commited each cycle (Count)
system.cpu0.commit.numCommittedDist::stdev     2.293983                       # Number of insts commited each cycle (Count)
system.cpu0.commit.numCommittedDist::underflows            0      0.00%      0.00% # Number of insts commited each cycle (Count)
system.cpu0.commit.numCommittedDist::0        1381721     39.48%     39.48% # Number of insts commited each cycle (Count)
system.cpu0.commit.numCommittedDist::1         500635     14.31%     53.79% # Number of insts commited each cycle (Count)
system.cpu0.commit.numCommittedDist::2         140256      4.01%     57.80% # Number of insts commited each cycle (Count)
system.cpu0.commit.numCommittedDist::3         946387     27.04%     84.84% # Number of insts commited each cycle (Count)
system.cpu0.commit.numCommittedDist::4         109207      3.12%     87.96% # Number of insts commited each cycle (Count)
system.cpu0.commit.numCommittedDist::5         124236      3.55%     91.51% # Number of insts commited each cycle (Count)
system.cpu0.commit.numCommittedDist::6          27906      0.80%     92.31% # Number of insts commited each cycle (Count)
system.cpu0.commit.numCommittedDist::7          22524      0.64%     92.95% # Number of insts commited each cycle (Count)
system.cpu0.commit.numCommittedDist::8         246586      7.05%    100.00% # Number of insts commited each cycle (Count)
system.cpu0.commit.numCommittedDist::overflows            0      0.00%    100.00% # Number of insts commited each cycle (Count)
system.cpu0.commit.numCommittedDist::min_value            0                       # Number of insts commited each cycle (Count)
system.cpu0.commit.numCommittedDist::max_value            8                       # Number of insts commited each cycle (Count)
system.cpu0.commit.numCommittedDist::total      3499458                       # Number of insts commited each cycle (Count)
system.cpu0.commit.amos                             0                       # Number of atomic instructions committed (Count)
system.cpu0.commit.membars                        370                       # Number of memory barriers committed (Count)
system.cpu0.commit.functionCalls                99859                       # Number of function calls committed. (Count)
system.cpu0.commit.committedInstType_0::No_OpClass        99821      1.43%      1.43% # Class of committed instruction (Count)
system.cpu0.commit.committedInstType_0::IntAlu      4694783     67.30%     68.73% # Class of committed instruction (Count)
system.cpu0.commit.committedInstType_0::IntMult           34      0.00%     68.73% # Class of committed instruction (Count)
system.cpu0.commit.committedInstType_0::IntDiv          161      0.00%     68.73% # Class of committed instruction (Count)
system.cpu0.commit.committedInstType_0::FloatAdd          336      0.00%     68.74% # Class of committed instruction (Count)
system.cpu0.commit.committedInstType_0::FloatCmp            0      0.00%     68.74% # Class of committed instruction (Count)
system.cpu0.commit.committedInstType_0::FloatCvt            0      0.00%     68.74% # Class of committed instruction (Count)
system.cpu0.commit.committedInstType_0::FloatMult            0      0.00%     68.74% # Class of committed instruction (Count)
system.cpu0.commit.committedInstType_0::FloatMultAcc            0      0.00%     68.74% # Class of committed instruction (Count)
system.cpu0.commit.committedInstType_0::FloatDiv            0      0.00%     68.74% # Class of committed instruction (Count)
system.cpu0.commit.committedInstType_0::FloatMisc            0      0.00%     68.74% # Class of committed instruction (Count)
system.cpu0.commit.committedInstType_0::FloatSqrt            0      0.00%     68.74% # Class of committed instruction (Count)
system.cpu0.commit.committedInstType_0::SimdAdd            8      0.00%     68.74% # Class of committed instruction (Count)
system.cpu0.commit.committedInstType_0::SimdAddAcc            0      0.00%     68.74% # Class of committed instruction (Count)
system.cpu0.commit.committedInstType_0::SimdAlu       196714      2.82%     71.56% # Class of committed instruction (Count)
system.cpu0.commit.committedInstType_0::SimdCmp            0      0.00%     71.56% # Class of committed instruction (Count)
system.cpu0.commit.committedInstType_0::SimdCvt            6      0.00%     71.56% # Class of committed instruction (Count)
system.cpu0.commit.committedInstType_0::SimdMisc          495      0.01%     71.56% # Class of committed instruction (Count)
system.cpu0.commit.committedInstType_0::SimdMult            0      0.00%     71.56% # Class of committed instruction (Count)
system.cpu0.commit.committedInstType_0::SimdMultAcc            0      0.00%     71.56% # Class of committed instruction (Count)
system.cpu0.commit.committedInstType_0::SimdMatMultAcc            0      0.00%     71.56% # Class of committed instruction (Count)
system.cpu0.commit.committedInstType_0::SimdShift            0      0.00%     71.56% # Class of committed instruction (Count)
system.cpu0.commit.committedInstType_0::SimdShiftAcc            0      0.00%     71.56% # Class of committed instruction (Count)
system.cpu0.commit.committedInstType_0::SimdDiv            0      0.00%     71.56% # Class of committed instruction (Count)
system.cpu0.commit.committedInstType_0::SimdSqrt            0      0.00%     71.56% # Class of committed instruction (Count)
system.cpu0.commit.committedInstType_0::SimdFloatAdd            0      0.00%     71.56% # Class of committed instruction (Count)
system.cpu0.commit.committedInstType_0::SimdFloatAlu            0      0.00%     71.56% # Class of committed instruction (Count)
system.cpu0.commit.committedInstType_0::SimdFloatCmp            0      0.00%     71.56% # Class of committed instruction (Count)
system.cpu0.commit.committedInstType_0::SimdFloatCvt            0      0.00%     71.56% # Class of committed instruction (Count)
system.cpu0.commit.committedInstType_0::SimdFloatDiv            0      0.00%     71.56% # Class of committed instruction (Count)
system.cpu0.commit.committedInstType_0::SimdFloatMisc            0      0.00%     71.56% # Class of committed instruction (Count)
system.cpu0.commit.committedInstType_0::SimdFloatMult            0      0.00%     71.56% # Class of committed instruction (Count)
system.cpu0.commit.committedInstType_0::SimdFloatMultAcc            0      0.00%     71.56% # Class of committed instruction (Count)
system.cpu0.commit.committedInstType_0::SimdFloatMatMultAcc            0      0.00%     71.56% # Class of committed instruction (Count)
system.cpu0.commit.committedInstType_0::SimdFloatSqrt            0      0.00%     71.56% # Class of committed instruction (Count)
system.cpu0.commit.committedInstType_0::SimdReduceAdd            0      0.00%     71.56% # Class of committed instruction (Count)
system.cpu0.commit.committedInstType_0::SimdReduceAlu            0      0.00%     71.56% # Class of committed instruction (Count)
system.cpu0.commit.committedInstType_0::SimdReduceCmp            0      0.00%     71.56% # Class of committed instruction (Count)
system.cpu0.commit.committedInstType_0::SimdFloatReduceAdd            0      0.00%     71.56% # Class of committed instruction (Count)
system.cpu0.commit.committedInstType_0::SimdFloatReduceCmp            0      0.00%     71.56% # Class of committed instruction (Count)
system.cpu0.commit.committedInstType_0::SimdAes            0      0.00%     71.56% # Class of committed instruction (Count)
system.cpu0.commit.committedInstType_0::SimdAesMix            0      0.00%     71.56% # Class of committed instruction (Count)
system.cpu0.commit.committedInstType_0::SimdSha1Hash            0      0.00%     71.56% # Class of committed instruction (Count)
system.cpu0.commit.committedInstType_0::SimdSha1Hash2            0      0.00%     71.56% # Class of committed instruction (Count)
system.cpu0.commit.committedInstType_0::SimdSha256Hash            0      0.00%     71.56% # Class of committed instruction (Count)
system.cpu0.commit.committedInstType_0::SimdSha256Hash2            0      0.00%     71.56% # Class of committed instruction (Count)
system.cpu0.commit.committedInstType_0::SimdShaSigma2            0      0.00%     71.56% # Class of committed instruction (Count)
system.cpu0.commit.committedInstType_0::SimdShaSigma3            0      0.00%     71.56% # Class of committed instruction (Count)
system.cpu0.commit.committedInstType_0::SimdPredAlu            0      0.00%     71.56% # Class of committed instruction (Count)
system.cpu0.commit.committedInstType_0::Matrix            0      0.00%     71.56% # Class of committed instruction (Count)
system.cpu0.commit.committedInstType_0::MatrixMov            0      0.00%     71.56% # Class of committed instruction (Count)
system.cpu0.commit.committedInstType_0::MatrixOP            0      0.00%     71.56% # Class of committed instruction (Count)
system.cpu0.commit.committedInstType_0::MemRead       794504     11.39%     82.95% # Class of committed instruction (Count)
system.cpu0.commit.committedInstType_0::MemWrite       793129     11.37%     94.32% # Class of committed instruction (Count)
system.cpu0.commit.committedInstType_0::FloatMemRead          672      0.01%     94.33% # Class of committed instruction (Count)
system.cpu0.commit.committedInstType_0::FloatMemWrite       395445      5.67%    100.00% # Class of committed instruction (Count)
system.cpu0.commit.committedInstType_0::IprAccess            0      0.00%    100.00% # Class of committed instruction (Count)
system.cpu0.commit.committedInstType_0::InstPrefetch            0      0.00%    100.00% # Class of committed instruction (Count)
system.cpu0.commit.committedInstType_0::SimdUnitStrideLoad            0      0.00%    100.00% # Class of committed instruction (Count)
system.cpu0.commit.committedInstType_0::SimdUnitStrideStore            0      0.00%    100.00% # Class of committed instruction (Count)
system.cpu0.commit.committedInstType_0::SimdUnitStrideMaskLoad            0      0.00%    100.00% # Class of committed instruction (Count)
system.cpu0.commit.committedInstType_0::SimdUnitStrideMaskStore            0      0.00%    100.00% # Class of committed instruction (Count)
system.cpu0.commit.committedInstType_0::SimdStridedLoad            0      0.00%    100.00% # Class of committed instruction (Count)
system.cpu0.commit.committedInstType_0::SimdStridedStore            0      0.00%    100.00% # Class of committed instruction (Count)
system.cpu0.commit.committedInstType_0::SimdIndexedLoad            0      0.00%    100.00% # Class of committed instruction (Count)
system.cpu0.commit.committedInstType_0::SimdIndexedStore            0      0.00%    100.00% # Class of committed instruction (Count)
system.cpu0.commit.committedInstType_0::SimdWholeRegisterLoad            0      0.00%    100.00% # Class of committed instruction (Count)
system.cpu0.commit.committedInstType_0::SimdWholeRegisterStore            0      0.00%    100.00% # Class of committed instruction (Count)
system.cpu0.commit.committedInstType_0::SimdUnitStrideFaultOnlyFirstLoad            0      0.00%    100.00% # Class of committed instruction (Count)
system.cpu0.commit.committedInstType_0::SimdUnitStrideSegmentedLoad            0      0.00%    100.00% # Class of committed instruction (Count)
system.cpu0.commit.committedInstType_0::SimdUnitStrideSegmentedStore            0      0.00%    100.00% # Class of committed instruction (Count)
system.cpu0.commit.committedInstType_0::SimdExt            0      0.00%    100.00% # Class of committed instruction (Count)
system.cpu0.commit.committedInstType_0::SimdFloatExt            0      0.00%    100.00% # Class of committed instruction (Count)
system.cpu0.commit.committedInstType_0::SimdConfig            0      0.00%    100.00% # Class of committed instruction (Count)
system.cpu0.commit.committedInstType_0::total      6976108                       # Class of committed instruction (Count)
system.cpu0.commit.commitEligibleSamples       246586                       # number cycles where commit BW limit reached (Cycle)
system.cpu0.commitStats0.numInsts             3588889                       # Number of instructions committed (thread level) (Count)
system.cpu0.commitStats0.numOps               6976108                       # Number of ops (including micro ops) committed (thread level) (Count)
system.cpu0.commitStats0.numInstsNotNOP       3588889                       # Number of instructions committed excluding NOPs or prefetches (Count)
system.cpu0.commitStats0.numOpsNotNOP         6976108                       # Number of Ops (including micro ops) Simulated (Count)
system.cpu0.commitStats0.cpi                 1.007005                       # CPI: cycles per instruction (thread level) ((Cycle/Count))
system.cpu0.commitStats0.ipc                 0.993044                       # IPC: instructions per cycle (thread level) ((Count/Cycle))
system.cpu0.commitStats0.numMemRefs           1983750                       # Number of memory references committed (Count)
system.cpu0.commitStats0.numFpInsts            593934                       # Number of float instructions (Count)
system.cpu0.commitStats0.numIntInsts          6579905                       # Number of integer instructions (Count)
system.cpu0.commitStats0.numLoadInsts          795176                       # Number of load instructions (Count)
system.cpu0.commitStats0.numStoreInsts        1188574                       # Number of store instructions (Count)
system.cpu0.commitStats0.numVecInsts                0                       # Number of vector instructions (Count)
system.cpu0.commitStats0.committedInstType::No_OpClass        99821      1.43%      1.43% # Class of committed instruction. (Count)
system.cpu0.commitStats0.committedInstType::IntAlu      4694783     67.30%     68.73% # Class of committed instruction. (Count)
system.cpu0.commitStats0.committedInstType::IntMult           34      0.00%     68.73% # Class of committed instruction. (Count)
system.cpu0.commitStats0.committedInstType::IntDiv          161      0.00%     68.73% # Class of committed instruction. (Count)
system.cpu0.commitStats0.committedInstType::FloatAdd          336      0.00%     68.74% # Class of committed instruction. (Count)
system.cpu0.commitStats0.committedInstType::FloatCmp            0      0.00%     68.74% # Class of committed instruction. (Count)
system.cpu0.commitStats0.committedInstType::FloatCvt            0      0.00%     68.74% # Class of committed instruction. (Count)
system.cpu0.commitStats0.committedInstType::FloatMult            0      0.00%     68.74% # Class of committed instruction. (Count)
system.cpu0.commitStats0.committedInstType::FloatMultAcc            0      0.00%     68.74% # Class of committed instruction. (Count)
system.cpu0.commitStats0.committedInstType::FloatDiv            0      0.00%     68.74% # Class of committed instruction. (Count)
system.cpu0.commitStats0.committedInstType::FloatMisc            0      0.00%     68.74% # Class of committed instruction. (Count)
system.cpu0.commitStats0.committedInstType::FloatSqrt            0      0.00%     68.74% # Class of committed instruction. (Count)
system.cpu0.commitStats0.committedInstType::SimdAdd            8      0.00%     68.74% # Class of committed instruction. (Count)
system.cpu0.commitStats0.committedInstType::SimdAddAcc            0      0.00%     68.74% # Class of committed instruction. (Count)
system.cpu0.commitStats0.committedInstType::SimdAlu       196714      2.82%     71.56% # Class of committed instruction. (Count)
system.cpu0.commitStats0.committedInstType::SimdCmp            0      0.00%     71.56% # Class of committed instruction. (Count)
system.cpu0.commitStats0.committedInstType::SimdCvt            6      0.00%     71.56% # Class of committed instruction. (Count)
system.cpu0.commitStats0.committedInstType::SimdMisc          495      0.01%     71.56% # Class of committed instruction. (Count)
system.cpu0.commitStats0.committedInstType::SimdMult            0      0.00%     71.56% # Class of committed instruction. (Count)
system.cpu0.commitStats0.committedInstType::SimdMultAcc            0      0.00%     71.56% # Class of committed instruction. (Count)
system.cpu0.commitStats0.committedInstType::SimdMatMultAcc            0      0.00%     71.56% # Class of committed instruction. (Count)
system.cpu0.commitStats0.committedInstType::SimdShift            0      0.00%     71.56% # Class of committed instruction. (Count)
[...]
system.cpu13.branchPred.lookups_0::CallIndirect            6      0.57%     18.62% # Number of BP lookups (Count)
system.cpu13.branchPred.lookups_0::DirectCond          786     75.07%     93.70% # Number of BP lookups (Count)
system.cpu13.branchPred.lookups_0::DirectUncond           65      6.21%     99.90% # Number of BP lookups (Count)
system.cpu13.branchPred.lookups_0::IndirectCond            0      0.00%     99.90% # Number of BP lookups (Count)
system.cpu13.branchPred.lookups_0::IndirectUncond            1      0.10%    100.00% # Number of BP lookups (Count)
system.cpu13.branchPred.lookups_0::total         1047                       # Number of BP lookups (Count)
system.cpu13.branchPred.squashes_0::NoBranch            4      0.73%      0.73% # Number of branches that got squashed (completely removed) as an earlier branch was mispredicted. (Count)
system.cpu13.branchPred.squashes_0::Return           70     12.84%     13.58% # Number of branches that got squashed (completely removed) as an earlier branch was mispredicted. (Count)
system.cpu13.branchPred.squashes_0::CallDirect           66     12.11%     25.69% # Number of branches that got squashed (completely removed) as an earlier branch was mispredicted. (Count)
system.cpu13.branchPred.squashes_0::CallIndirect            4      0.73%     26.42% # Number of branches that got squashed (completely removed) as an earlier branch was mispredicted. (Count)
system.cpu13.branchPred.squashes_0::DirectCond          349     64.04%     90.46% # Number of branches that got squashed (completely removed) as an earlier branch was mispredicted. (Count)
system.cpu13.branchPred.squashes_0::DirectUncond           51      9.36%     99.82% # Number of branches that got squashed (completely removed) as an earlier branch was mispredicted. (Count)
system.cpu13.branchPred.squashes_0::IndirectCond            0      0.00%     99.82% # Number of branches that got squashed (completely removed) as an earlier branch was mispredicted. (Count)
system.cpu13.branchPred.squashes_0::IndirectUncond            1      0.18%    100.00% # Number of branches that got squashed (completely removed) as an earlier branch was mispredicted. (Count)
system.cpu13.branchPred.squashes_0::total          545                       # Number of branches that got squashed (completely removed) as an earlier branch was mispredicted. (Count)
system.cpu13.branchPred.corrected_0::NoBranch            0      0.00%      0.00% # Number of branches that got corrected but not yet commited. Branches get corrected by decode or after execute. Also a branch misprediction can be detected out-of-order. Therefore, a corrected branch might not end up beeing committed in case an even earlier branch was mispredicted (Count)
system.cpu13.branchPred.corrected_0::Return            0      0.00%      0.00% # Number of branches that got corrected but not yet commited. Branches get corrected by decode or after execute. Also a branch misprediction can be detected out-of-order. Therefore, a corrected branch might not end up beeing committed in case an even earlier branch was mispredicted (Count)
system.cpu13.branchPred.corrected_0::CallDirect           30     21.58%     21.58% # Number of branches that got corrected but not yet commited. Branches get corrected by decode or after execute. Also a branch misprediction can be detected out-of-order. Therefore, a corrected branch might not end up beeing committed in case an even earlier branch was mispredicted (Count)
system.cpu13.branchPred.corrected_0::CallIndirect            2      1.44%     23.02% # Number of branches that got corrected but not yet commited. Branches get corrected by decode or after execute. Also a branch misprediction can be detected out-of-order. Therefore, a corrected branch might not end up beeing committed in case an even earlier branch was mispredicted (Count)
system.cpu13.branchPred.corrected_0::DirectCond           91     65.47%     88.49% # Number of branches that got corrected but not yet commited. Branches get corrected by decode or after execute. Also a branch misprediction can be detected out-of-order. Therefore, a corrected branch might not end up beeing committed in case an even earlier branch was mispredicted (Count)
system.cpu13.branchPred.corrected_0::DirectUncond           16     11.51%    100.00% # Number of branches that got corrected but not yet commited. Branches get corrected by decode or after execute. Also a branch misprediction can be detected out-of-order. Therefore, a corrected branch might not end up beeing committed in case an even earlier branch was mispredicted (Count)
system.cpu13.branchPred.corrected_0::IndirectCond            0      0.00%    100.00% # Number of branches that got corrected but not yet commited. Branches get corrected by decode or after execute. Also a branch misprediction can be detected out-of-order. Therefore, a corrected branch might not end up beeing committed in case an even earlier branch was mispredicted (Count)
system.cpu13.branchPred.corrected_0::IndirectUncond            0      0.00%    100.00% # Number of branches that got corrected but not yet commited. Branches get corrected by decode or after execute. Also a branch misprediction can be detected out-of-order. Therefore, a corrected branch might not end up beeing committed in case an even earlier branch was mispredicted (Count)
system.cpu13.branchPred.corrected_0::total          139                       # Number of branches that got corrected but not yet commited. Branches get corrected by decode or after execute. Also a branch misprediction can be detected out-of-order. Therefore, a corrected branch might not end up beeing committed in case an even earlier branch was mispredicted (Count)
system.cpu13.branchPred.earlyResteers_0::NoBranch            0                       # Number of branches that got redirected after decode. (Count)
system.cpu13.branchPred.earlyResteers_0::Return            0                       # Number of branches that got redirected after decode. (Count)
system.cpu13.branchPred.earlyResteers_0::CallDirect            0                       # Number of branches that got redirected after decode. (Count)
system.cpu13.branchPred.earlyResteers_0::CallIndirect            0                       # Number of branches that got redirected after decode. (Count)
system.cpu13.branchPred.earlyResteers_0::DirectCond            0                       # Number of branches that got redirected after decode. (Count)
system.cpu13.branchPred.earlyResteers_0::DirectUncond            0                       # Number of branches that got redirected after decode. (Count)
system.cpu13.branchPred.earlyResteers_0::IndirectCond            0                       # Number of branches that got redirected after decode. (Count)
system.cpu13.branchPred.earlyResteers_0::IndirectUncond            0                       # Number of branches that got redirected after decode. (Count)
system.cpu13.branchPred.earlyResteers_0::total            0                       # Number of branches that got redirected after decode. (Count)
system.cpu13.branchPred.committed_0::NoBranch            0      0.00%      0.00% # Number of branches finally committed  (Count)
system.cpu13.branchPred.committed_0::Return           22      4.42%      4.42% # Number of branches finally committed  (Count)
system.cpu13.branchPred.committed_0::CallDirect           25      5.02%      9.44% # Number of branches finally committed  (Count)
system.cpu13.branchPred.committed_0::CallIndirect            2      0.40%      9.84% # Number of branches finally committed  (Count)
system.cpu13.branchPred.committed_0::DirectCond          436     87.55%     97.39% # Number of branches finally committed  (Count)
system.cpu13.branchPred.committed_0::DirectUncond           13      2.61%    100.00% # Number of branches finally committed  (Count)
system.cpu13.branchPred.committed_0::IndirectCond            0      0.00%    100.00% # Number of branches finally committed  (Count)
system.cpu13.branchPred.committed_0::IndirectUncond            0      0.00%    100.00% # Number of branches finally committed  (Count)
system.cpu13.branchPred.committed_0::total          498                       # Number of branches finally committed  (Count)
system.cpu13.branchPred.mispredicted_0::NoBranch            0      0.00%      0.00% # Number of committed branches that were mispredicted. (Count)
system.cpu13.branchPred.mispredicted_0::Return            0      0.00%      0.00% # Number of committed branches that were mispredicted. (Count)
system.cpu13.branchPred.mispredicted_0::CallDirect           15     14.85%     14.85% # Number of committed branches that were mispredicted. (Count)
system.cpu13.branchPred.mispredicted_0::CallIndirect            2      1.98%     16.83% # Number of committed branches that were mispredicted. (Count)
system.cpu13.branchPred.mispredicted_0::DirectCond           79     78.22%     95.05% # Number of committed branches that were mispredicted. (Count)
system.cpu13.branchPred.mispredicted_0::DirectUncond            5      4.95%    100.00% # Number of committed branches that were mispredicted. (Count)
system.cpu13.branchPred.mispredicted_0::IndirectCond            0      0.00%    100.00% # Number of committed branches that were mispredicted. (Count)
system.cpu13.branchPred.mispredicted_0::IndirectUncond            0      0.00%    100.00% # Number of committed branches that were mispredicted. (Count)
system.cpu13.branchPred.mispredicted_0::total          101                       # Number of committed branches that were mispredicted. (Count)
system.cpu13.branchPred.targetProvider_0::NoTarget          599     57.21%     57.21% # The component providing the target for taken branches (Count)
system.cpu13.branchPred.targetProvider_0::BTB          358     34.19%     91.40% # The component providing the target for taken branches (Count)
system.cpu13.branchPred.targetProvider_0::RAS           90      8.60%    100.00% # The component providing the target for taken branches (Count)
system.cpu13.branchPred.targetProvider_0::Indirect            0      0.00%    100.00% # The component providing the target for taken branches (Count)
system.cpu13.branchPred.targetProvider_0::total         1047                       # The component providing the target for taken branches (Count)
system.cpu13.branchPred.targetWrong_0::NoBranch          120     95.24%     95.24% # Number of branches where the target was incorrect or not available at prediction time. (Count)
system.cpu13.branchPred.targetWrong_0::Return            6      4.76%    100.00% # Number of branches where the target was incorrect or not available at prediction time. (Count)
system.cpu13.branchPred.targetWrong_0::CallDirect            0      0.00%    100.00% # Number of branches where the target was incorrect or not available at prediction time. (Count)
system.cpu13.branchPred.targetWrong_0::CallIndirect            0      0.00%    100.00% # Number of branches where the target was incorrect or not available at prediction time. (Count)
system.cpu13.branchPred.targetWrong_0::DirectCond            0      0.00%    100.00% # Number of branches where the target was incorrect or not available at prediction time. (Count)
system.cpu13.branchPred.targetWrong_0::DirectUncond            0      0.00%    100.00% # Number of branches where the target was incorrect or not available at prediction time. (Count)
system.cpu13.branchPred.targetWrong_0::IndirectCond            0      0.00%    100.00% # Number of branches where the target was incorrect or not available at prediction time. (Count)
system.cpu13.branchPred.targetWrong_0::IndirectUncond            0      0.00%    100.00% # Number of branches where the target was incorrect or not available at prediction time. (Count)
system.cpu13.branchPred.targetWrong_0::total          126                       # Number of branches where the target was incorrect or not available at prediction time. (Count)
system.cpu13.branchPred.condPredicted             790                       # Number of conditional branches predicted (Count)
system.cpu13.branchPred.condPredictedTaken          301                       # Number of conditional branches predicted as taken (Count)
system.cpu13.branchPred.condIncorrect             139                       # Number of conditional branches incorrect (Count)
system.cpu13.branchPred.predTakenBTBMiss           47                       # Number of branches predicted taken but missed in BTB (Count)
system.cpu13.branchPred.NotTakenMispredicted          132                       # Number branches predicted 'not taken' but turned out to be taken (Count)
system.cpu13.branchPred.TakenMispredicted            7                       # Number branches predicted taken but are actually not taken (Count)
system.cpu13.branchPred.BTBLookups               1047                       # Number of BTB lookups (Count)
system.cpu13.branchPred.BTBUpdates                130                       # Number of BTB updates (Count)
system.cpu13.branchPred.BTBHits                   415                       # Number of BTB hits (Count)
system.cpu13.branchPred.BTBHitRatio          0.396371                       # BTB Hit Ratio (Ratio)
system.cpu13.branchPred.BTBMispredicted            96                       # Number BTB mispredictions. No target found or target wrong (Count)
system.cpu13.branchPred.indirectLookups             7                       # Number of indirect predictor lookups. (Count)
system.cpu13.branchPred.indirectHits                0                       # Number of indirect target hits. (Count)
system.cpu13.branchPred.indirectMisses              7                       # Number of indirect misses. (Count)
system.cpu13.branchPred.indirectMispredicted            0                       # Number of mispredicted indirect branches. (Count)
system.cpu13.branchPred.btb.lookups::NoBranch            4      0.38%      0.38% # Number of BTB lookups (Count)
system.cpu13.branchPred.btb.lookups::Return           93      8.88%      9.26% # Number of BTB lookups (Count)
system.cpu13.branchPred.btb.lookups::CallDirect           92      8.79%     18.05% # Number of BTB lookups (Count)
system.cpu13.branchPred.btb.lookups::CallIndirect            6      0.57%     18.62% # Number of BTB lookups (Count)
system.cpu13.branchPred.btb.lookups::DirectCond          786     75.07%     93.70% # Number of BTB lookups (Count)
system.cpu13.branchPred.btb.lookups::DirectUncond           65      6.21%     99.90% # Number of BTB lookups (Count)
system.cpu13.branchPred.btb.lookups::IndirectCond            0      0.00%     99.90% # Number of BTB lookups (Count)
system.cpu13.branchPred.btb.lookups::IndirectUncond            1      0.10%    100.00% # Number of BTB lookups (Count)
system.cpu13.branchPred.btb.lookups::total         1047                       # Number of BTB lookups (Count)
system.cpu13.branchPred.btb.misses::NoBranch            4      0.63%      0.63% # Number of BTB misses (Count)
system.cpu13.branchPred.btb.misses::Return           93     14.72%     15.35% # Number of BTB misses (Count)
system.cpu13.branchPred.btb.misses::CallDirect           59      9.34%     24.68% # Number of BTB misses (Count)
system.cpu13.branchPred.btb.misses::CallIndirect            6      0.95%     25.63% # Number of BTB misses (Count)
system.cpu13.branchPred.btb.misses::DirectCond          431     68.20%     93.83% # Number of BTB misses (Count)
system.cpu13.branchPred.btb.misses::DirectUncond           38      6.01%     99.84% # Number of BTB misses (Count)
system.cpu13.branchPred.btb.misses::IndirectCond            0      0.00%     99.84% # Number of BTB misses (Count)
system.cpu13.branchPred.btb.misses::IndirectUncond            1      0.16%    100.00% # Number of BTB misses (Count)
system.cpu13.branchPred.btb.misses::total          632                       # Number of BTB misses (Count)
system.cpu13.branchPred.btb.updates::NoBranch            0      0.00%      0.00% # Number of BTB updates (Count)
system.cpu13.branchPred.btb.updates::Return            0      0.00%      0.00% # Number of BTB updates (Count)
system.cpu13.branchPred.btb.updates::CallDirect           30     23.08%     23.08% # Number of BTB updates (Count)
system.cpu13.branchPred.btb.updates::CallIndirect            0      0.00%     23.08% # Number of BTB updates (Count)
system.cpu13.branchPred.btb.updates::DirectCond           84     64.62%     87.69% # Number of BTB updates (Count)
system.cpu13.branchPred.btb.updates::DirectUncond           16     12.31%    100.00% # Number of BTB updates (Count)
system.cpu13.branchPred.btb.updates::IndirectCond            0      0.00%    100.00% # Number of BTB updates (Count)
system.cpu13.branchPred.btb.updates::IndirectUncond            0      0.00%    100.00% # Number of BTB updates (Count)
system.cpu13.branchPred.btb.updates::total          130                       # Number of BTB updates (Count)
system.cpu13.branchPred.btb.mispredict::NoBranch            0      0.00%      0.00% # Number of BTB mispredictions. No target found or target wrong. (Count)
system.cpu13.branchPred.btb.mispredict::Return            0      0.00%      0.00% # Number of BTB mispredictions. No target found or target wrong. (Count)
system.cpu13.branchPred.btb.mispredict::CallDirect           30     23.08%     23.08% # Number of BTB mispredictions. No target found or target wrong. (Count)
system.cpu13.branchPred.btb.mispredict::CallIndirect            0      0.00%     23.08% # Number of BTB mispredictions. No target found or target wrong. (Count)
system.cpu13.branchPred.btb.mispredict::DirectCond           84     64.62%     87.69% # Number of BTB mispredictions. No target found or target wrong. (Count)
system.cpu13.branchPred.btb.mispredict::DirectUncond           16     12.31%    100.00% # Number of BTB mispredictions. No target found or target wrong. (Count)
system.cpu13.branchPred.btb.mispredict::IndirectCond            0      0.00%    100.00% # Number of BTB mispredictions. No target found or target wrong. (Count)
system.cpu13.branchPred.btb.mispredict::IndirectUncond            0      0.00%    100.00% # Number of BTB mispredictions. No target found or target wrong. (Count)
system.cpu13.branchPred.btb.mispredict::total          130                       # Number of BTB mispredictions. No target found or target wrong. (Count)
system.cpu13.branchPred.btb.power_state.pwrStateResidencyTicks::UNDEFINED   2714928300                       # Cumulative time (in ticks) in various power states (Tick)
system.cpu13.branchPred.indirectBranchPred.lookups            7                       # Number of lookups (Count)
system.cpu13.branchPred.indirectBranchPred.hits            0                       # Number of hits of a tag (Count)
system.cpu13.branchPred.indirectBranchPred.misses            7                       # Number of misses (Count)
system.cpu13.branchPred.indirectBranchPred.targetRecords            2                       # Number of targets that where recorded/installed in the cache (Count)
system.cpu13.branchPred.indirectBranchPred.indirectRecords            9                       # Number of indirect branches/calls recorded in the indirect hist (Count)
system.cpu13.branchPred.indirectBranchPred.speculativeOverflows            4                       # Number of times more than the allowed capacity for speculative branches/calls where in flight and destroy the path history (Count)
system.cpu13.branchPred.loop_predictor.used            0                       # Number of times the loop predictor is the provider. (Count)
system.cpu13.branchPred.loop_predictor.correct            0                       # Number of times the loop predictor is the provider and the prediction is correct (Count)
system.cpu13.branchPred.loop_predictor.wrong            0                       # Number of times the loop predictor is the provider and the prediction is wrong (Count)
