
---------- Begin Simulation Statistics ----------
simSeconds                                   0.654685                       # Number of seconds simulated (Second)
simTicks                                 654684548742                       # Number of ticks simulated (Tick)
finalTick                                654684548742                       # Number of ticks from beginning of simulation (restored from checkpoints and never reset) (Tick)
simFreq                                  1000000000000                       # The number of ticks per simulated second ((Tick/Second))
hostSeconds                                  47191.04                       # Real time elapsed on the host (Second)
hostTickRate                                 13873069                       # The number of ticks simulated per host second (ticks/s) ((Tick/Second))
hostMemory                                    4126384                       # Number of bytes of host memory used (Byte)
simInsts                                   1918869400                       # Number of instructions simulated (Count)
simOps                                     3304986373                       # Number of ops (including micro ops) simulated (Count)
hostInstRate                                    40662                       # Simulator instruction rate (inst/s) ((Count/Second))
hostOpRate                                      70034                       # Simulator op (including micro ops) rate (op/s) ((Count/Second))
system.clk_domain.clock                          1000                       # Clock period in ticks (Tick)
system.cpu0.numCycles                      2165363514                       # Number of cpu cycles simulated (Cycle)
system.cpu0.cpi                              1.291301                       # CPI: cycles per instruction (core level) ((Cycle/Count))
system.cpu0.ipc                              0.774413                       # IPC: instructions per cycle (core level) ((Count/Cycle))
system.cpu0.numWorkItemsStarted                     0                       # Number of work items this cpu started (Count)
system.cpu0.numWorkItemsCompleted                   0                       # Number of work items this cpu completed (Count)
system.cpu0.instsAdded                     4847059600                       # Number of instructions added to the IQ (excludes non-spec) (Count)
system.cpu0.nonSpecInstsAdded                27726774                       # Number of non-speculative instructions added to the IQ (Count)
system.cpu0.instsIssued                    3869046303                       # Number of instructions issued (Count)
system.cpu0.squashedInstsIssued              12143490                       # Number of squashed instructions issued (Count)
system.cpu0.squashedInstsExamined          2023262519                       # Number of squashed instructions iterated over during squash; mainly for profiling (Count)
system.cpu0.squashedOperandsExamined       5034470134                       # Number of squashed operands that are examined and possibly removed from graph (Count)
system.cpu0.squashedNonSpecRemoved           12339339                       # Number of squashed non-spec instructions that were removed (Count)
system.cpu0.numIssuedDist::samples         2164572172                       # Number of insts issued each cycle (Count)
system.cpu0.numIssuedDist::mean              1.787442                       # Number of insts issued each cycle (Count)
system.cpu0.numIssuedDist::stdev             2.040568                       # Number of insts issued each cycle (Count)
system.cpu0.numIssuedDist::underflows               0      0.00%      0.00% # Number of insts issued each cycle (Count)
system.cpu0.numIssuedDist::0                897077421     41.44%     41.44% # Number of insts issued each cycle (Count)
system.cpu0.numIssuedDist::1                282519487     13.05%     54.50% # Number of insts issued each cycle (Count)
system.cpu0.numIssuedDist::2                305344330     14.11%     68.60% # Number of insts issued each cycle (Count)
system.cpu0.numIssuedDist::3                240725186     11.12%     79.72% # Number of insts issued each cycle (Count)
system.cpu0.numIssuedDist::4                183997027      8.50%     88.22% # Number of insts issued each cycle (Count)
system.cpu0.numIssuedDist::5                114094917      5.27%     93.49% # Number of insts issued each cycle (Count)
system.cpu0.numIssuedDist::6                 69810506      3.23%     96.72% # Number of insts issued each cycle (Count)
system.cpu0.numIssuedDist::7                 39689515      1.83%     98.55% # Number of insts issued each cycle (Count)
system.cpu0.numIssuedDist::8                 31313783      1.45%    100.00% # Number of insts issued each cycle (Count)
system.cpu0.numIssuedDist::overflows                0      0.00%    100.00% # Number of insts issued each cycle (Count)
system.cpu0.numIssuedDist::min_value                0                       # Number of insts issued each cycle (Count)
system.cpu0.numIssuedDist::max_value                8                       # Number of insts issued each cycle (Count)
system.cpu0.numIssuedDist::total           2164572172                       # Number of insts issued each cycle (Count)
system.cpu0.statFuBusy::No_OpClass                  0      0.00%      0.00% # attempts to use FU when none available (Count)
system.cpu0.statFuBusy::IntAlu               16063069     32.23%     32.23% # attempts to use FU when none available (Count)
system.cpu0.statFuBusy::IntMult                     0      0.00%     32.23% # attempts to use FU when none available (Count)
system.cpu0.statFuBusy::IntDiv                      0      0.00%     32.23% # attempts to use FU when none available (Count)
system.cpu0.statFuBusy::FloatAdd                    0      0.00%     32.23% # attempts to use FU when none available (Count)
system.cpu0.statFuBusy::FloatCmp                    0      0.00%     32.23% # attempts to use FU when none available (Count)
system.cpu0.statFuBusy::FloatCvt                    0      0.00%     32.23% # attempts to use FU when none available (Count)
system.cpu0.statFuBusy::FloatMult                   0      0.00%     32.23% # attempts to use FU when none available (Count)
system.cpu0.statFuBusy::FloatMultAcc                0      0.00%     32.23% # attempts to use FU when none available (Count)
system.cpu0.statFuBusy::FloatDiv                    0      0.00%     32.23% # attempts to use FU when none available (Count)
system.cpu0.statFuBusy::FloatMisc                   0      0.00%     32.23% # attempts to use FU when none available (Count)
system.cpu0.statFuBusy::FloatSqrt                   0      0.00%     32.23% # attempts to use FU when none available (Count)
system.cpu0.statFuBusy::SimdAdd                     0      0.00%     32.23% # attempts to use FU when none available (Count)
system.cpu0.statFuBusy::SimdAddAcc                  0      0.00%     32.23% # attempts to use FU when none available (Count)
system.cpu0.statFuBusy::SimdAlu                     1      0.00%     32.23% # attempts to use FU when none available (Count)
system.cpu0.statFuBusy::SimdCmp                     0      0.00%     32.23% # attempts to use FU when none available (Count)
system.cpu0.statFuBusy::SimdCvt                     0      0.00%     32.23% # attempts to use FU when none available (Count)
system.cpu0.statFuBusy::SimdMisc                    0      0.00%     32.23% # attempts to use FU when none available (Count)
system.cpu0.statFuBusy::SimdMult                    0      0.00%     32.23% # attempts to use FU when none available (Count)
system.cpu0.statFuBusy::SimdMultAcc                 0      0.00%     32.23% # attempts to use FU when none available (Count)
system.cpu0.statFuBusy::SimdMatMultAcc              0      0.00%     32.23% # attempts to use FU when none available (Count)
system.cpu0.statFuBusy::SimdShift                   0      0.00%     32.23% # attempts to use FU when none available (Count)
system.cpu0.statFuBusy::SimdShiftAcc                0      0.00%     32.23% # attempts to use FU when none available (Count)
system.cpu0.statFuBusy::SimdDiv                     0      0.00%     32.23% # attempts to use FU when none available (Count)
system.cpu0.statFuBusy::SimdSqrt                    0      0.00%     32.23% # attempts to use FU when none available (Count)
system.cpu0.statFuBusy::SimdFloatAdd                0      0.00%     32.23% # attempts to use FU when none available (Count)
system.cpu0.statFuBusy::SimdFloatAlu                0      0.00%     32.23% # attempts to use FU when none available (Count)
system.cpu0.statFuBusy::SimdFloatCmp                0      0.00%     32.23% # attempts to use FU when none available (Count)
system.cpu0.statFuBusy::SimdFloatCvt                0      0.00%     32.23% # attempts to use FU when none available (Count)
system.cpu0.statFuBusy::SimdFloatDiv                0      0.00%     32.23% # attempts to use FU when none available (Count)
system.cpu0.statFuBusy::SimdFloatMisc               0      0.00%     32.23% # attempts to use FU when none available (Count)
system.cpu0.statFuBusy::SimdFloatMult               0      0.00%     32.23% # attempts to use FU when none available (Count)
system.cpu0.statFuBusy::SimdFloatMultAcc            0      0.00%     32.23% # attempts to use FU when none available (Count)
system.cpu0.statFuBusy::SimdFloatMatMultAcc            0      0.00%     32.23% # attempts to use FU when none available (Count)
system.cpu0.statFuBusy::SimdFloatSqrt               0      0.00%     32.23% # attempts to use FU when none available (Count)
system.cpu0.statFuBusy::SimdReduceAdd               0      0.00%     32.23% # attempts to use FU when none available (Count)
system.cpu0.statFuBusy::SimdReduceAlu               0      0.00%     32.23% # attempts to use FU when none available (Count)
system.cpu0.statFuBusy::SimdReduceCmp               0      0.00%     32.23% # attempts to use FU when none available (Count)
system.cpu0.statFuBusy::SimdFloatReduceAdd            0      0.00%     32.23% # attempts to use FU when none available (Count)
system.cpu0.statFuBusy::SimdFloatReduceCmp            0      0.00%     32.23% # attempts to use FU when none available (Count)
system.cpu0.statFuBusy::SimdAes                     0      0.00%     32.23% # attempts to use FU when none available (Count)
system.cpu0.statFuBusy::SimdAesMix                  0      0.00%     32.23% # attempts to use FU when none available (Count)
system.cpu0.statFuBusy::SimdSha1Hash                0      0.00%     32.23% # attempts to use FU when none available (Count)
system.cpu0.statFuBusy::SimdSha1Hash2               0      0.00%     32.23% # attempts to use FU when none available (Count)
system.cpu0.statFuBusy::SimdSha256Hash              0      0.00%     32.23% # attempts to use FU when none available (Count)
system.cpu0.statFuBusy::SimdSha256Hash2             0      0.00%     32.23% # attempts to use FU when none available (Count)
system.cpu0.statFuBusy::SimdShaSigma2               0      0.00%     32.23% # attempts to use FU when none available (Count)
system.cpu0.statFuBusy::SimdShaSigma3               0      0.00%     32.23% # attempts to use FU when none available (Count)
system.cpu0.statFuBusy::SimdPredAlu                 0      0.00%     32.23% # attempts to use FU when none available (Count)
system.cpu0.statFuBusy::Matrix                      0      0.00%     32.23% # attempts to use FU when none available (Count)
system.cpu0.statFuBusy::MatrixMov                   0      0.00%     32.23% # attempts to use FU when none available (Count)
system.cpu0.statFuBusy::MatrixOP                    0      0.00%     32.23% # attempts to use FU when none available (Count)
system.cpu0.statFuBusy::MemRead              21797225     43.73%     75.96% # attempts to use FU when none available (Count)
system.cpu0.statFuBusy::MemWrite             11122726     22.32%     98.28% # attempts to use FU when none available (Count)
system.cpu0.statFuBusy::FloatMemRead           292272      0.59%     98.87% # attempts to use FU when none available (Count)
system.cpu0.statFuBusy::FloatMemWrite          564277      1.13%    100.00% # attempts to use FU when none available (Count)
system.cpu0.statFuBusy::IprAccess                   0      0.00%    100.00% # attempts to use FU when none available (Count)
system.cpu0.statFuBusy::InstPrefetch                0      0.00%    100.00% # attempts to use FU when none available (Count)
system.cpu0.statFuBusy::SimdUnitStrideLoad            0      0.00%    100.00% # attempts to use FU when none available (Count)
system.cpu0.statFuBusy::SimdUnitStrideStore            0      0.00%    100.00% # attempts to use FU when none available (Count)
system.cpu0.statFuBusy::SimdUnitStrideMaskLoad            0      0.00%    100.00% # attempts to use FU when none available (Count)
system.cpu0.statFuBusy::SimdUnitStrideMaskStore            0      0.00%    100.00% # attempts to use FU when none available (Count)
system.cpu0.statFuBusy::SimdStridedLoad             0      0.00%    100.00% # attempts to use FU when none available (Count)
system.cpu0.statFuBusy::SimdStridedStore            0      0.00%    100.00% # attempts to use FU when none available (Count)
system.cpu0.statFuBusy::SimdIndexedLoad             0      0.00%    100.00% # attempts to use FU when none available (Count)
system.cpu0.statFuBusy::SimdIndexedStore            0      0.00%    100.00% # attempts to use FU when none available (Count)
system.cpu0.statFuBusy::SimdWholeRegisterLoad            0      0.00%    100.00% # attempts to use FU when none available (Count)
system.cpu0.statFuBusy::SimdWholeRegisterStore            0      0.00%    100.00% # attempts to use FU when none available (Count)
system.cpu0.statFuBusy::SimdUnitStrideFaultOnlyFirstLoad            0      0.00%    100.00% # attempts to use FU when none available (Count)
system.cpu0.statFuBusy::SimdUnitStrideSegmentedLoad            0      0.00%    100.00% # attempts to use FU when none available (Count)
system.cpu0.statFuBusy::SimdUnitStrideSegmentedStore            0      0.00%    100.00% # attempts to use FU when none available (Count)
system.cpu0.statFuBusy::SimdExt                     0      0.00%    100.00% # attempts to use FU when none available (Count)
system.cpu0.statFuBusy::SimdFloatExt                0      0.00%    100.00% # attempts to use FU when none available (Count)
system.cpu0.statFuBusy::SimdConfig                  0      0.00%    100.00% # attempts to use FU when none available (Count)
system.cpu0.statIssuedInstType_0::No_OpClass      7815242      0.20%      0.20% # Number of instructions issued per FU type, per thread (Count)
system.cpu0.statIssuedInstType_0::IntAlu   3042241184     78.63%     78.83% # Number of instructions issued per FU type, per thread (Count)
system.cpu0.statIssuedInstType_0::IntMult       748205      0.02%     78.85% # Number of instructions issued per FU type, per thread (Count)
system.cpu0.statIssuedInstType_0::IntDiv          641      0.00%     78.85% # Number of instructions issued per FU type, per thread (Count)
system.cpu0.statIssuedInstType_0::FloatAdd       827099      0.02%     78.87% # Number of instructions issued per FU type, per thread (Count)
system.cpu0.statIssuedInstType_0::FloatCmp            0      0.00%     78.87% # Number of instructions issued per FU type, per thread (Count)
system.cpu0.statIssuedInstType_0::FloatCvt            0      0.00%     78.87% # Number of instructions issued per FU type, per thread (Count)
system.cpu0.statIssuedInstType_0::FloatMult            0      0.00%     78.87% # Number of instructions issued per FU type, per thread (Count)
system.cpu0.statIssuedInstType_0::FloatMultAcc            0      0.00%     78.87% # Number of instructions issued per FU type, per thread (Count)
system.cpu0.statIssuedInstType_0::FloatDiv            0      0.00%     78.87% # Number of instructions issued per FU type, per thread (Count)
system.cpu0.statIssuedInstType_0::FloatMisc            0      0.00%     78.87% # Number of instructions issued per FU type, per thread (Count)
system.cpu0.statIssuedInstType_0::FloatSqrt            0      0.00%     78.87% # Number of instructions issued per FU type, per thread (Count)
system.cpu0.statIssuedInstType_0::SimdAdd           10      0.00%     78.87% # Number of instructions issued per FU type, per thread (Count)
system.cpu0.statIssuedInstType_0::SimdAddAcc            0      0.00%     78.87% # Number of instructions issued per FU type, per thread (Count)
system.cpu0.statIssuedInstType_0::SimdAlu     15169426      0.39%     79.27% # Number of instructions issued per FU type, per thread (Count)
system.cpu0.statIssuedInstType_0::SimdCmp            0      0.00%     79.27% # Number of instructions issued per FU type, per thread (Count)
system.cpu0.statIssuedInstType_0::SimdCvt           66      0.00%     79.27% # Number of instructions issued per FU type, per thread (Count)
system.cpu0.statIssuedInstType_0::SimdMisc      3066601      0.08%     79.34% # Number of instructions issued per FU type, per thread (Count)
system.cpu0.statIssuedInstType_0::SimdMult            0      0.00%     79.34% # Number of instructions issued per FU type, per thread (Count)
system.cpu0.statIssuedInstType_0::SimdMultAcc            0      0.00%     79.34% # Number of instructions issued per FU type, per thread (Count)
system.cpu0.statIssuedInstType_0::SimdMatMultAcc            0      0.00%     79.34% # Number of instructions issued per FU type, per thread (Count)
system.cpu0.statIssuedInstType_0::SimdShift            9      0.00%     79.34% # Number of instructions issued per FU type, per thread (Count)
system.cpu0.statIssuedInstType_0::SimdShiftAcc            0      0.00%     79.34% # Number of instructions issued per FU type, per thread (Count)
system.cpu0.statIssuedInstType_0::SimdDiv            0      0.00%     79.34% # Number of instructions issued per FU type, per thread (Count)
system.cpu0.statIssuedInstType_0::SimdSqrt            0      0.00%     79.34% # Number of instructions issued per FU type, per thread (Count)
system.cpu0.statIssuedInstType_0::SimdFloatAdd      2300355      0.06%     79.40% # Number of instructions issued per FU type, per thread (Count)
system.cpu0.statIssuedInstType_0::SimdFloatAlu            0      0.00%     79.40% # Number of instructions issued per FU type, per thread (Count)
system.cpu0.statIssuedInstType_0::SimdFloatCmp            0      0.00%     79.40% # Number of instructions issued per FU type, per thread (Count)
system.cpu0.statIssuedInstType_0::SimdFloatCvt      2000002      0.05%     79.46% # Number of instructions issued per FU type, per thread (Count)
system.cpu0.statIssuedInstType_0::SimdFloatDiv            0      0.00%     79.46% # Number of instructions issued per FU type, per thread (Count)
system.cpu0.statIssuedInstType_0::SimdFloatMisc            0      0.00%     79.46% # Number of instructions issued per FU type, per thread (Count)
system.cpu0.statIssuedInstType_0::SimdFloatMult            1      0.00%     79.46% # Number of instructions issued per FU type, per thread (Count)
system.cpu0.statIssuedInstType_0::SimdFloatMultAcc            0      0.00%     79.46% # Number of instructions issued per FU type, per thread (Count)
system.cpu0.statIssuedInstType_0::SimdFloatMatMultAcc            0      0.00%     79.46% # Number of instructions issued per FU type, per thread (Count)
system.cpu0.statIssuedInstType_0::SimdFloatSqrt            0      0.00%     79.46% # Number of instructions issued per FU type, per thread (Count)
system.cpu0.statIssuedInstType_0::SimdReduceAdd            0      0.00%     79.46% # Number of instructions issued per FU type, per thread (Count)
system.cpu0.statIssuedInstType_0::SimdReduceAlu            0      0.00%     79.46% # Number of instructions issued per FU type, per thread (Count)
system.cpu0.statIssuedInstType_0::SimdReduceCmp            0      0.00%     79.46% # Number of instructions issued per FU type, per thread (Count)
system.cpu0.statIssuedInstType_0::SimdFloatReduceAdd            0      0.00%     79.46% # Number of instructions issued per FU type, per thread (Count)
system.cpu0.statIssuedInstType_0::SimdFloatReduceCmp            0      0.00%     79.46% # Number of instructions issued per FU type, per thread (Count)
system.cpu0.statIssuedInstType_0::SimdAes            0      0.00%     79.46% # Number of instructions issued per FU type, per thread (Count)
system.cpu0.statIssuedInstType_0::SimdAesMix            0      0.00%     79.46% # Number of instructions issued per FU type, per thread (Count)
system.cpu0.statIssuedInstType_0::SimdSha1Hash            0      0.00%     79.46% # Number of instructions issued per FU type, per thread (Count)
system.cpu0.statIssuedInstType_0::SimdSha1Hash2            0      0.00%     79.46% # Number of instructions issued per FU type, per thread (Count)
system.cpu0.statIssuedInstType_0::SimdSha256Hash            0      0.00%     79.46% # Number of instructions issued per FU type, per thread (Count)
system.cpu0.statIssuedInstType_0::SimdSha256Hash2            0      0.00%     79.46% # Number of instructions issued per FU type, per thread (Count)
system.cpu0.statIssuedInstType_0::SimdShaSigma2            0      0.00%     79.46% # Number of instructions issued per FU type, per thread (Count)
system.cpu0.statIssuedInstType_0::SimdShaSigma3            0      0.00%     79.46% # Number of instructions issued per FU type, per thread (Count)
system.cpu0.statIssuedInstType_0::SimdPredAlu            0      0.00%     79.46% # Number of instructions issued per FU type, per thread (Count)
system.cpu0.statIssuedInstType_0::Matrix            0      0.00%     79.46% # Number of instructions issued per FU type, per thread (Count)
system.cpu0.statIssuedInstType_0::MatrixMov            0      0.00%     79.46% # Number of instructions issued per FU type, per thread (Count)
system.cpu0.statIssuedInstType_0::MatrixOP            0      0.00%     79.46% # Number of instructions issued per FU type, per thread (Count)
system.cpu0.statIssuedInstType_0::MemRead    513102072     13.26%     92.72% # Number of instructions issued per FU type, per thread (Count)
system.cpu0.statIssuedInstType_0::MemWrite    274171707      7.09%     99.80% # Number of instructions issued per FU type, per thread (Count)
system.cpu0.statIssuedInstType_0::FloatMemRead      2534985      0.07%     99.87% # Number of instructions issued per FU type, per thread (Count)
system.cpu0.statIssuedInstType_0::FloatMemWrite      5068698      0.13%    100.00% # Number of instructions issued per FU type, per thread (Count)
system.cpu0.statIssuedInstType_0::IprAccess            0      0.00%    100.00% # Number of instructions issued per FU type, per thread (Count)
system.cpu0.statIssuedInstType_0::InstPrefetch            0      0.00%    100.00% # Number of instructions issued per FU type, per thread (Count)
system.cpu0.statIssuedInstType_0::SimdUnitStrideLoad            0      0.00%    100.00% # Number of instructions issued per FU type, per thread (Count)
system.cpu0.statIssuedInstType_0::SimdUnitStrideStore            0      0.00%    100.00% # Number of instructions issued per FU type, per thread (Count)
system.cpu0.statIssuedInstType_0::SimdUnitStrideMaskLoad            0      0.00%    100.00% # Number of instructions issued per FU type, per thread (Count)
system.cpu0.statIssuedInstType_0::SimdUnitStrideMaskStore            0      0.00%    100.00% # Number of instructions issued per FU type, per thread (Count)
system.cpu0.statIssuedInstType_0::SimdStridedLoad            0      0.00%    100.00% # Number of instructions issued per FU type, per thread (Count)
system.cpu0.statIssuedInstType_0::SimdStridedStore            0      0.00%    100.00% # Number of instructions issued per FU type, per thread (Count)
system.cpu0.statIssuedInstType_0::SimdIndexedLoad            0      0.00%    100.00% # Number of instructions issued per FU type, per thread (Count)
system.cpu0.statIssuedInstType_0::SimdIndexedStore            0      0.00%    100.00% # Number of instructions issued per FU type, per thread (Count)
system.cpu0.statIssuedInstType_0::SimdWholeRegisterLoad            0      0.00%    100.00% # Number of instructions issued per FU type, per thread (Count)
system.cpu0.statIssuedInstType_0::SimdWholeRegisterStore            0      0.00%    100.00% # Number of instructions issued per FU type, per thread (Count)
system.cpu0.statIssuedInstType_0::SimdUnitStrideFaultOnlyFirstLoad            0      0.00%    100.00% # Number of instructions issued per FU type, per thread (Count)
system.cpu0.statIssuedInstType_0::SimdUnitStrideSegmentedLoad            0      0.00%    100.00% # Number of instructions issued per FU type, per thread (Count)
system.cpu0.statIssuedInstType_0::SimdUnitStrideSegmentedStore            0      0.00%    100.00% # Number of instructions issued per FU type, per thread (Count)
system.cpu0.statIssuedInstType_0::SimdExt            0      0.00%    100.00% # Number of instructions issued per FU type, per thread (Count)
system.cpu0.statIssuedInstType_0::SimdFloatExt            0      0.00%    100.00% # Number of instructions issued per FU type, per thread (Count)
system.cpu0.statIssuedInstType_0::SimdConfig            0      0.00%    100.00% # Number of instructions issued per FU type, per thread (Count)
system.cpu0.statIssuedInstType_0::total    3869046303                       # Number of instructions issued per FU type, per thread (Count)
system.cpu0.issueRate                        1.786788                       # Inst issue rate ((Count/Cycle))
system.cpu0.fuBusy                           49839570                       # FU busy when requested (Count)
system.cpu0.fuBusyRate                       0.012882                       # FU busy rate (busy events/executed inst) ((Count/Count))
system.cpu0.intInstQueueReads              9894981854                       # Number of integer instruction queue reads (Count)
system.cpu0.intInstQueueWrites             6827656959                       # Number of integer instruction queue writes (Count)
system.cpu0.intInstQueueWakeupAccesses     3773344353                       # Number of integer instruction queue wakeup accesses (Count)
system.cpu0.fpInstQueueReads                 69665979                       # Number of floating instruction queue reads (Count)
system.cpu0.fpInstQueueWrites                76087475                       # Number of floating instruction queue writes (Count)
system.cpu0.fpInstQueueWakeupAccesses        34237461                       # Number of floating instruction queue wakeup accesses (Count)
system.cpu0.vecInstQueueReads                       0                       # Number of vector instruction queue reads (Count)
system.cpu0.vecInstQueueWrites                      0                       # Number of vector instruction queue writes (Count)
system.cpu0.vecInstQueueWakeupAccesses              0                       # Number of vector instruction queue wakeup accesses (Count)
system.cpu0.intAluAccesses                 3875810962                       # Number of integer alu accesses (Count)
system.cpu0.fpAluAccesses                    35259669                       # Number of floating point alu accesses (Count)
system.cpu0.vecAluAccesses                          0                       # Number of vector alu accesses (Count)
system.cpu0.numSquashedInsts                 22123867                       # Number of squashed instructions skipped in execute (Count)
system.cpu0.numSwp                                  0                       # Number of swp insts executed (Count)
system.cpu0.timesIdled                          32949                       # Number of times that the entire CPU went into an idle state and unscheduled itself (Count)
system.cpu0.idleCycles                         791342                       # Total number of cycles that the CPU has spent unscheduled due to idling (Cycle)
system.cpu0.quiesceCycles                    61454680                       # Total number of cycles that CPU has spent quiesced or waiting for an interrupt (Cycle)
system.cpu0.MemDepUnit__0.insertedLoads     699236781                       # Number of loads inserted to the mem dependence unit. (Count)
system.cpu0.MemDepUnit__0.insertedStores    354911306                       # Number of stores inserted to the mem dependence unit. (Count)
system.cpu0.MemDepUnit__0.conflictingLoads    245546599                       # Number of conflicting loads. (Count)
system.cpu0.MemDepUnit__0.conflictingStores    129866015                       # Number of conflicting stores. (Count)
system.cpu0.MemDepUnit__1.insertedLoads             0                       # Number of loads inserted to the mem dependence unit. (Count)
system.cpu0.MemDepUnit__1.insertedStores            0                       # Number of stores inserted to the mem dependence unit. (Count)
system.cpu0.MemDepUnit__1.conflictingLoads            0                       # Number of conflicting loads. (Count)
system.cpu0.MemDepUnit__1.conflictingStores            0                       # Number of conflicting stores. (Count)
system.cpu0.MemDepUnit__2.insertedLoads             0                       # Number of loads inserted to the mem dependence unit. (Count)
system.cpu0.MemDepUnit__2.insertedStores            0                       # Number of stores inserted to the mem dependence unit. (Count)
system.cpu0.MemDepUnit__2.conflictingLoads            0                       # Number of conflicting loads. (Count)
system.cpu0.MemDepUnit__2.conflictingStores            0                       # Number of conflicting stores. (Count)
system.cpu0.MemDepUnit__3.insertedLoads             0                       # Number of loads inserted to the mem dependence unit. (Count)
system.cpu0.MemDepUnit__3.insertedStores            0                       # Number of stores inserted to the mem dependence unit. (Count)
system.cpu0.MemDepUnit__3.conflictingLoads            0                       # Number of conflicting loads. (Count)
system.cpu0.MemDepUnit__3.conflictingStores            0                       # Number of conflicting stores. (Count)
system.cpu0.branchPred.lookups_0::NoBranch          220      0.00%      0.00% # Number of BP lookups (Count)
system.cpu0.branchPred.lookups_0::Return     56156872     11.10%     11.10% # Number of BP lookups (Count)
system.cpu0.branchPred.lookups_0::CallDirect     52915921     10.46%     21.55% # Number of BP lookups (Count)
system.cpu0.branchPred.lookups_0::CallIndirect       723565      0.14%     21.70% # Number of BP lookups (Count)
system.cpu0.branchPred.lookups_0::DirectCond    293994256     58.10%     79.80% # Number of BP lookups (Count)
system.cpu0.branchPred.lookups_0::DirectUncond     79616149     15.73%     95.53% # Number of BP lookups (Count)
system.cpu0.branchPred.lookups_0::IndirectCond            0      0.00%     95.53% # Number of BP lookups (Count)
system.cpu0.branchPred.lookups_0::IndirectUncond     22624218      4.47%    100.00% # Number of BP lookups (Count)
system.cpu0.branchPred.lookups_0::total     506031201                       # Number of BP lookups (Count)
system.cpu0.branchPred.squashes_0::NoBranch          220      0.00%      0.00% # Number of branches that got squashed (completely removed) as an earlier branch was mispredicted. (Count)
system.cpu0.branchPred.squashes_0::Return     24812762     11.05%     11.05% # Number of branches that got squashed (completely removed) as an earlier branch was mispredicted. (Count)
system.cpu0.branchPred.squashes_0::CallDirect     21973370      9.78%     20.83% # Number of branches that got squashed (completely removed) as an earlier branch was mispredicted. (Count)
system.cpu0.branchPred.squashes_0::CallIndirect       322001      0.14%     20.97% # Number of branches that got squashed (completely removed) as an earlier branch was mispredicted. (Count)
system.cpu0.branchPred.squashes_0::DirectCond    133885073     59.61%     80.59% # Number of branches that got squashed (completely removed) as an earlier branch was mispredicted. (Count)
system.cpu0.branchPred.squashes_0::DirectUncond     34367029     15.30%     95.89% # Number of branches that got squashed (completely removed) as an earlier branch was mispredicted. (Count)
system.cpu0.branchPred.squashes_0::IndirectCond            0      0.00%     95.89% # Number of branches that got squashed (completely removed) as an earlier branch was mispredicted. (Count)
system.cpu0.branchPred.squashes_0::IndirectUncond      9234053      4.11%    100.00% # Number of branches that got squashed (completely removed) as an earlier branch was mispredicted. (Count)
system.cpu0.branchPred.squashes_0::total    224594508                       # Number of branches that got squashed (completely removed) as an earlier branch was mispredicted. (Count)
system.cpu0.branchPred.corrected_0::NoBranch           12      0.00%      0.00% # Number of branches that got corrected but not yet commited. Branches get corrected by decode or after execute. Also a branch misprediction can be detected out-of-order. Therefore, a corrected branch might not end up beeing committed in case an even earlier branch was mispredicted (Count)
system.cpu0.branchPred.corrected_0::Return        30246      0.34%      0.34% # Number of branches that got corrected but not yet commited. Branches get corrected by decode or after execute. Also a branch misprediction can be detected out-of-order. Therefore, a corrected branch might not end up beeing committed in case an even earlier branch was mispredicted (Count)
system.cpu0.branchPred.corrected_0::CallDirect       207098      2.33%      2.67% # Number of branches that got corrected but not yet commited. Branches get corrected by decode or after execute. Also a branch misprediction can be detected out-of-order. Therefore, a corrected branch might not end up beeing committed in case an even earlier branch was mispredicted (Count)
system.cpu0.branchPred.corrected_0::CallIndirect          885      0.01%      2.68% # Number of branches that got corrected but not yet commited. Branches get corrected by decode or after execute. Also a branch misprediction can be detected out-of-order. Therefore, a corrected branch might not end up beeing committed in case an even earlier branch was mispredicted (Count)
system.cpu0.branchPred.corrected_0::DirectCond      5025887     56.59%     59.27% # Number of branches that got corrected but not yet commited. Branches get corrected by decode or after execute. Also a branch misprediction can be detected out-of-order. Therefore, a corrected branch might not end up beeing committed in case an even earlier branch was mispredicted (Count)
system.cpu0.branchPred.corrected_0::DirectUncond       315112      3.55%     62.82% # Number of branches that got corrected but not yet commited. Branches get corrected by decode or after execute. Also a branch misprediction can be detected out-of-order. Therefore, a corrected branch might not end up beeing committed in case an even earlier branch was mispredicted (Count)
system.cpu0.branchPred.corrected_0::IndirectCond            0      0.00%     62.82% # Number of branches that got corrected but not yet commited. Branches get corrected by decode or after execute. Also a branch misprediction can be detected out-of-order. Therefore, a corrected branch might not end up beeing committed in case an even earlier branch was mispredicted (Count)
system.cpu0.branchPred.corrected_0::IndirectUncond      3302058     37.18%    100.00% # Number of branches that got corrected but not yet commited. Branches get corrected by decode or after execute. Also a branch misprediction can be detected out-of-order. Therefore, a corrected branch might not end up beeing committed in case an even earlier branch was mispredicted (Count)
system.cpu0.branchPred.corrected_0::total      8881298                       # Number of branches that got corrected but not yet commited. Branches get corrected by decode or after execute. Also a branch misprediction can be detected out-of-order. Therefore, a corrected branch might not end up beeing committed in case an even earlier branch was mispredicted (Count)
system.cpu0.branchPred.earlyResteers_0::NoBranch            0                       # Number of branches that got redirected after decode. (Count)
system.cpu0.branchPred.earlyResteers_0::Return            0                       # Number of branches that got redirected after decode. (Count)
system.cpu0.branchPred.earlyResteers_0::CallDirect            0                       # Number of branches that got redirected after decode. (Count)
system.cpu0.branchPred.earlyResteers_0::CallIndirect            0                       # Number of branches that got redirected after decode. (Count)
system.cpu0.branchPred.earlyResteers_0::DirectCond            0                       # Number of branches that got redirected after decode. (Count)
system.cpu0.branchPred.earlyResteers_0::DirectUncond            0                       # Number of branches that got redirected after decode. (Count)
system.cpu0.branchPred.earlyResteers_0::IndirectCond            0                       # Number of branches that got redirected after decode. (Count)
system.cpu0.branchPred.earlyResteers_0::IndirectUncond            0                       # Number of branches that got redirected after decode. (Count)
system.cpu0.branchPred.earlyResteers_0::total            0                       # Number of branches that got redirected after decode. (Count)
system.cpu0.branchPred.committed_0::NoBranch            0      0.00%      0.00% # Number of branches finally committed  (Count)
system.cpu0.branchPred.committed_0::Return     31344110     11.14%     11.14% # Number of branches finally committed  (Count)
system.cpu0.branchPred.committed_0::CallDirect     30942551     10.99%     22.13% # Number of branches finally committed  (Count)
system.cpu0.branchPred.committed_0::CallIndirect       401564      0.14%     22.27% # Number of branches finally committed  (Count)
system.cpu0.branchPred.committed_0::DirectCond    160109180     56.89%     79.16% # Number of branches finally committed  (Count)
system.cpu0.branchPred.committed_0::DirectUncond     45249118     16.08%     95.24% # Number of branches finally committed  (Count)
system.cpu0.branchPred.committed_0::IndirectCond            0      0.00%     95.24% # Number of branches finally committed  (Count)
system.cpu0.branchPred.committed_0::IndirectUncond     13390165      4.76%    100.00% # Number of branches finally committed  (Count)
system.cpu0.branchPred.committed_0::total    281436688                       # Number of branches finally committed  (Count)
system.cpu0.branchPred.mispredicted_0::NoBranch            0      0.00%      0.00% # Number of committed branches that were mispredicted. (Count)
system.cpu0.branchPred.mispredicted_0::Return        27171      0.32%      0.32% # Number of committed branches that were mispredicted. (Count)
system.cpu0.branchPred.mispredicted_0::CallDirect        60985      0.72%      1.05% # Number of committed branches that were mispredicted. (Count)
system.cpu0.branchPred.mispredicted_0::CallIndirect          856      0.01%      1.06% # Number of committed branches that were mispredicted. (Count)
system.cpu0.branchPred.mispredicted_0::DirectCond      4901591     58.23%     59.29% # Number of committed branches that were mispredicted. (Count)
system.cpu0.branchPred.mispredicted_0::DirectUncond       125220      1.49%     60.77% # Number of committed branches that were mispredicted. (Count)
system.cpu0.branchPred.mispredicted_0::IndirectCond            0      0.00%     60.77% # Number of committed branches that were mispredicted. (Count)
system.cpu0.branchPred.mispredicted_0::IndirectUncond      3302031     39.23%    100.00% # Number of committed branches that were mispredicted. (Count)
system.cpu0.branchPred.mispredicted_0::total      8417854                       # Number of committed branches that were mispredicted. (Count)
system.cpu0.branchPred.targetProvider_0::NoTarget    196965444     38.92%     38.92% # The component providing the target for taken branches (Count)
system.cpu0.branchPred.targetProvider_0::BTB    229745046     45.40%     84.32% # The component providing the target for taken branches (Count)
system.cpu0.branchPred.targetProvider_0::RAS     56156872     11.10%     95.42% # The component providing the target for taken branches (Count)
system.cpu0.branchPred.targetProvider_0::Indirect     23163839      4.58%    100.00% # The component providing the target for taken branches (Count)
system.cpu0.branchPred.targetProvider_0::total    506031201                       # The component providing the target for taken branches (Count)
system.cpu0.branchPred.targetWrong_0::NoBranch      3140497     35.36%     35.36% # Number of branches where the target was incorrect or not available at prediction time. (Count)
system.cpu0.branchPred.targetWrong_0::Return      2409511     27.13%     62.49% # Number of branches where the target was incorrect or not available at prediction time. (Count)
system.cpu0.branchPred.targetWrong_0::CallDirect        30246      0.34%     62.83% # Number of branches where the target was incorrect or not available at prediction time. (Count)
system.cpu0.branchPred.targetWrong_0::CallIndirect      3301023     37.17%    100.00% # Number of branches where the target was incorrect or not available at prediction time. (Count)
system.cpu0.branchPred.targetWrong_0::DirectCond            0      0.00%    100.00% # Number of branches where the target was incorrect or not available at prediction time. (Count)
system.cpu0.branchPred.targetWrong_0::DirectUncond            0      0.00%    100.00% # Number of branches where the target was incorrect or not available at prediction time. (Count)
system.cpu0.branchPred.targetWrong_0::IndirectCond            0      0.00%    100.00% # Number of branches where the target was incorrect or not available at prediction time. (Count)
system.cpu0.branchPred.targetWrong_0::IndirectUncond            0      0.00%    100.00% # Number of branches where the target was incorrect or not available at prediction time. (Count)
system.cpu0.branchPred.targetWrong_0::total      8881277                       # Number of branches where the target was incorrect or not available at prediction time. (Count)
system.cpu0.branchPred.condPredicted        293994475                       # Number of conditional branches predicted (Count)
system.cpu0.branchPred.condPredictedTaken     99340371                       # Number of conditional branches predicted as taken (Count)
system.cpu0.branchPred.condIncorrect          8881298                       # Number of conditional branches incorrect (Count)
system.cpu0.branchPred.predTakenBTBMiss       1006895                       # Number of branches predicted taken but missed in BTB (Count)
system.cpu0.branchPred.NotTakenMispredicted      6861475                       # Number branches predicted 'not taken' but turned out to be taken (Count)
system.cpu0.branchPred.TakenMispredicted      2019823                       # Number branches predicted taken but are actually not taken (Count)
system.cpu0.branchPred.BTBLookups           506031201                       # Number of BTB lookups (Count)
system.cpu0.branchPred.BTBUpdates             3528274                       # Number of BTB updates (Count)
system.cpu0.branchPred.BTBHits              313578944                       # Number of BTB hits (Count)
system.cpu0.branchPred.BTBHitRatio           0.619683                       # BTB Hit Ratio (Ratio)
system.cpu0.branchPred.BTBMispredicted        1012213                       # Number BTB mispredictions. No target found or target wrong (Count)
system.cpu0.branchPred.indirectLookups       23347783                       # Number of indirect predictor lookups. (Count)
system.cpu0.branchPred.indirectHits          23163839                       # Number of indirect target hits. (Count)
system.cpu0.branchPred.indirectMisses          183944                       # Number of indirect misses. (Count)
system.cpu0.branchPred.indirectMispredicted            0                       # Number of mispredicted indirect branches. (Count)
system.cpu0.branchPred.btb.lookups::NoBranch          220      0.00%      0.00% # Number of BTB lookups (Count)
system.cpu0.branchPred.btb.lookups::Return     56156872     11.10%     11.10% # Number of BTB lookups (Count)
system.cpu0.branchPred.btb.lookups::CallDirect     52915921     10.46%     21.55% # Number of BTB lookups (Count)
system.cpu0.branchPred.btb.lookups::CallIndirect       723565      0.14%     21.70% # Number of BTB lookups (Count)
system.cpu0.branchPred.btb.lookups::DirectCond    293994256     58.10%     79.80% # Number of BTB lookups (Count)
system.cpu0.branchPred.btb.lookups::DirectUncond     79616149     15.73%     95.53% # Number of BTB lookups (Count)
system.cpu0.branchPred.btb.lookups::IndirectCond            0      0.00%     95.53% # Number of BTB lookups (Count)
system.cpu0.branchPred.btb.lookups::IndirectUncond     22624218      4.47%    100.00% # Number of BTB lookups (Count)
system.cpu0.branchPred.btb.lookups::total    506031201                       # Number of BTB lookups (Count)
system.cpu0.branchPred.btb.misses::NoBranch          218      0.00%      0.00% # Number of BTB misses (Count)
system.cpu0.branchPred.btb.misses::Return     56156842     29.18%     29.18% # Number of BTB misses (Count)
system.cpu0.branchPred.btb.misses::CallDirect       220731      0.11%     29.29% # Number of BTB misses (Count)
system.cpu0.branchPred.btb.misses::CallIndirect       723565      0.38%     29.67% # Number of BTB misses (Count)
system.cpu0.branchPred.btb.misses::DirectCond    112621690     58.52%     88.19% # Number of BTB misses (Count)
system.cpu0.branchPred.btb.misses::DirectUncond       104993      0.05%     88.24% # Number of BTB misses (Count)
system.cpu0.branchPred.btb.misses::IndirectCond            0      0.00%     88.24% # Number of BTB misses (Count)
system.cpu0.branchPred.btb.misses::IndirectUncond     22624218     11.76%    100.00% # Number of BTB misses (Count)
system.cpu0.branchPred.btb.misses::total    192452257                       # Number of BTB misses (Count)
system.cpu0.branchPred.btb.updates::NoBranch            0      0.00%      0.00% # Number of BTB updates (Count)
system.cpu0.branchPred.btb.updates::Return            0      0.00%      0.00% # Number of BTB updates (Count)
system.cpu0.branchPred.btb.updates::CallDirect       207098      5.87%      5.87% # Number of BTB updates (Count)
system.cpu0.branchPred.btb.updates::CallIndirect            0      0.00%      5.87% # Number of BTB updates (Count)
system.cpu0.branchPred.btb.updates::DirectCond      3006064     85.20%     91.07% # Number of BTB updates (Count)
system.cpu0.branchPred.btb.updates::DirectUncond       315112      8.93%    100.00% # Number of BTB updates (Count)
system.cpu0.branchPred.btb.updates::IndirectCond            0      0.00%    100.00% # Number of BTB updates (Count)
system.cpu0.branchPred.btb.updates::IndirectUncond            0      0.00%    100.00% # Number of BTB updates (Count)
system.cpu0.branchPred.btb.updates::total      3528274                       # Number of BTB updates (Count)
system.cpu0.branchPred.btb.mispredict::NoBranch            0      0.00%      0.00% # Number of BTB mispredictions. No target found or target wrong. (Count)
system.cpu0.branchPred.btb.mispredict::Return            0      0.00%      0.00% # Number of BTB mispredictions. No target found or target wrong. (Count)
system.cpu0.branchPred.btb.mispredict::CallDirect       207098      5.87%      5.87% # Number of BTB mispredictions. No target found or target wrong. (Count)
system.cpu0.branchPred.btb.mispredict::CallIndirect            0      0.00%      5.87% # Number of BTB mispredictions. No target found or target wrong. (Count)
system.cpu0.branchPred.btb.mispredict::DirectCond      3006064     85.20%     91.07% # Number of BTB mispredictions. No target found or target wrong. (Count)
system.cpu0.branchPred.btb.mispredict::DirectUncond       315112      8.93%    100.00% # Number of BTB mispredictions. No target found or target wrong. (Count)
system.cpu0.branchPred.btb.mispredict::IndirectCond            0      0.00%    100.00% # Number of BTB mispredictions. No target found or target wrong. (Count)
system.cpu0.branchPred.btb.mispredict::IndirectUncond            0      0.00%    100.00% # Number of BTB mispredictions. No target found or target wrong. (Count)
system.cpu0.branchPred.btb.mispredict::total      3528274                       # Number of BTB mispredictions. No target found or target wrong. (Count)
system.cpu0.branchPred.btb.power_state.pwrStateResidencyTicks::UNDEFINED 654684548742                       # Cumulative time (in ticks) in various power states (Tick)
system.cpu0.branchPred.indirectBranchPred.lookups     23347783                       # Number of lookups (Count)
system.cpu0.branchPred.indirectBranchPred.hits     23163839                       # Number of hits of a tag (Count)
system.cpu0.branchPred.indirectBranchPred.misses       183944                       # Number of misses (Count)
system.cpu0.branchPred.indirectBranchPred.targetRecords      3302943                       # Number of targets that where recorded/installed in the cache (Count)
system.cpu0.branchPred.indirectBranchPred.indirectRecords     26650726                       # Number of indirect branches/calls recorded in the indirect hist (Count)
system.cpu0.branchPred.indirectBranchPred.speculativeOverflows            1                       # Number of times more than the allowed capacity for speculative branches/calls where in flight and destroy the path history (Count)
system.cpu0.branchPred.loop_predictor.used      1408584                       # Number of times the loop predictor is the provider. (Count)
system.cpu0.branchPred.loop_predictor.correct      1397256                       # Number of times the loop predictor is the provider and the prediction is correct (Count)
system.cpu0.branchPred.loop_predictor.wrong        11328                       # Number of times the loop predictor is the provider and the prediction is wrong (Count)
system.cpu0.branchPred.ras.pushes            78452248                       # Number of times a PC was pushed onto the RAS (Count)
system.cpu0.branchPred.ras.pops              78452243                       # Number of times a PC was poped from the RAS (Count)
system.cpu0.branchPred.ras.squashes          47108133                       # Number of times the stack operation was squashed due to wrong speculation. (Count)
system.cpu0.branchPred.ras.used              31344110                       # Number of times the RAS is the provider (Count)
system.cpu0.branchPred.ras.correct           31316939                       # Number of times the RAS is the provider and the prediction is correct (Count)
system.cpu0.branchPred.ras.incorrect            27171                       # Number of times the RAS is the provider and the prediction is wrong (Count)
system.cpu0.branchPred.statistical_corrector.correct    107826236                       # Number of time the SC predictor is the provider and the prediction is correct (Count)
system.cpu0.branchPred.statistical_corrector.wrong     52282944                       # Number of time the SC predictor is the provider and the prediction is wrong (Count)
system.cpu0.branchPred.tage.longestMatchProviderCorrect     63031567                       # Number of times TAGE Longest Match is the provider and the prediction is correct (Count)
system.cpu0.branchPred.tage.altMatchProviderCorrect       959505                       # Number of times TAGE Alt Match is the provider and the prediction is correct (Count)
system.cpu0.branchPred.tage.bimodalAltMatchProviderCorrect        47120                       # Number of times TAGE Alt Match is the bimodal and it is the provider and the prediction is correct (Count)
system.cpu0.branchPred.tage.bimodalProviderCorrect     89876328                       # Number of times there are no hits on the TAGE tables and the bimodal prediction is correct (Count)
system.cpu0.branchPred.tage.longestMatchProviderWrong      2358987                       # Number of times TAGE Longest Match is the provider and the prediction is wrong (Count)
system.cpu0.branchPred.tage.altMatchProviderWrong       490180                       # Number of times TAGE Alt Match is the provider and the prediction is wrong (Count)
system.cpu0.branchPred.tage.bimodalAltMatchProviderWrong         2715                       # Number of times TAGE Alt Match is the bimodal and it is the provider and the prediction is wrong (Count)
system.cpu0.branchPred.tage.bimodalProviderWrong         6470                       # Number of times there are no hits on the TAGE tables and the bimodal prediction is wrong (Count)
system.cpu0.branchPred.tage.altMatchProviderWouldHaveHit       672607                       # Number of times TAGE Longest Match is the provider, the prediction is wrong and Alt Match prediction was correct (Count)
system.cpu0.branchPred.tage.longestMatchProviderWouldHaveHit       297945                       # Number of times TAGE Alt Match is the provider, the prediction is wrong and Longest Match prediction was correct (Count)
system.cpu0.branchPred.tage.longestMatchProvider::0            0                       # TAGE provider for longest match (Count)
system.cpu0.branchPred.tage.longestMatchProvider::1            0                       # TAGE provider for longest match (Count)
system.cpu0.branchPred.tage.longestMatchProvider::2      3473826                       # TAGE provider for longest match (Count)
system.cpu0.branchPred.tage.longestMatchProvider::3            0                       # TAGE provider for longest match (Count)
system.cpu0.branchPred.tage.longestMatchProvider::4            0                       # TAGE provider for longest match (Count)
system.cpu0.branchPred.tage.longestMatchProvider::5            0                       # TAGE provider for longest match (Count)
system.cpu0.branchPred.tage.longestMatchProvider::6     10442468                       # TAGE provider for longest match (Count)
system.cpu0.branchPred.tage.longestMatchProvider::7            0                       # TAGE provider for longest match (Count)
system.cpu0.branchPred.tage.longestMatchProvider::8            0                       # TAGE provider for longest match (Count)
system.cpu0.branchPred.tage.longestMatchProvider::9      2055559                       # TAGE provider for longest match (Count)
system.cpu0.branchPred.tage.longestMatchProvider::10      4186277                       # TAGE provider for longest match (Count)
system.cpu0.branchPred.tage.longestMatchProvider::11      2875216                       # TAGE provider for longest match (Count)
system.cpu0.branchPred.tage.longestMatchProvider::12      2899919                       # TAGE provider for longest match (Count)
system.cpu0.branchPred.tage.longestMatchProvider::13      3622017                       # TAGE provider for longest match (Count)
system.cpu0.branchPred.tage.longestMatchProvider::14      4194751                       # TAGE provider for longest match (Count)
system.cpu0.branchPred.tage.longestMatchProvider::15      3575461                       # TAGE provider for longest match (Count)
system.cpu0.branchPred.tage.longestMatchProvider::16      2613937                       # TAGE provider for longest match (Count)
system.cpu0.branchPred.tage.longestMatchProvider::17      2761191                       # TAGE provider for longest match (Count)
system.cpu0.branchPred.tage.longestMatchProvider::18      3675795                       # TAGE provider for longest match (Count)
system.cpu0.branchPred.tage.longestMatchProvider::19      3439437                       # TAGE provider for longest match (Count)
system.cpu0.branchPred.tage.longestMatchProvider::20      3687215                       # TAGE provider for longest match (Count)
system.cpu0.branchPred.tage.longestMatchProvider::21      3059472                       # TAGE provider for longest match (Count)
system.cpu0.branchPred.tage.longestMatchProvider::22      3295544                       # TAGE provider for longest match (Count)
system.cpu0.branchPred.tage.longestMatchProvider::23            0                       # TAGE provider for longest match (Count)
system.cpu0.branchPred.tage.longestMatchProvider::24      3176500                       # TAGE provider for longest match (Count)
system.cpu0.branchPred.tage.longestMatchProvider::25            0                       # TAGE provider for longest match (Count)
system.cpu0.branchPred.tage.longestMatchProvider::26      1978770                       # TAGE provider for longest match (Count)
system.cpu0.branchPred.tage.longestMatchProvider::27            0                       # TAGE provider for longest match (Count)
system.cpu0.branchPred.tage.longestMatchProvider::28      1437248                       # TAGE provider for longest match (Count)
system.cpu0.branchPred.tage.longestMatchProvider::29            0                       # TAGE provider for longest match (Count)
system.cpu0.branchPred.tage.longestMatchProvider::30            0                       # TAGE provider for longest match (Count)
system.cpu0.branchPred.tage.longestMatchProvider::31            0                       # TAGE provider for longest match (Count)
system.cpu0.branchPred.tage.longestMatchProvider::32       223975                       # TAGE provider for longest match (Count)
system.cpu0.branchPred.tage.longestMatchProvider::33            0                       # TAGE provider for longest match (Count)
system.cpu0.branchPred.tage.longestMatchProvider::34            0                       # TAGE provider for longest match (Count)
system.cpu0.branchPred.tage.longestMatchProvider::35            0                       # TAGE provider for longest match (Count)
system.cpu0.branchPred.tage.longestMatchProvider::36       165661                       # TAGE provider for longest match (Count)
system.cpu0.branchPred.tage.altMatchProvider::0     24204228                       # TAGE provider for alt match (Count)
system.cpu0.branchPred.tage.altMatchProvider::1            0                       # TAGE provider for alt match (Count)
system.cpu0.branchPred.tage.altMatchProvider::2      4725000                       # TAGE provider for alt match (Count)
system.cpu0.branchPred.tage.altMatchProvider::3            0                       # TAGE provider for alt match (Count)
system.cpu0.branchPred.tage.altMatchProvider::4            0                       # TAGE provider for alt match (Count)
system.cpu0.branchPred.tage.altMatchProvider::5            0                       # TAGE provider for alt match (Count)
system.cpu0.branchPred.tage.altMatchProvider::6      5116110                       # TAGE provider for alt match (Count)
system.cpu0.branchPred.tage.altMatchProvider::7            0                       # TAGE provider for alt match (Count)
system.cpu0.branchPred.tage.altMatchProvider::8            0                       # TAGE provider for alt match (Count)
system.cpu0.branchPred.tage.altMatchProvider::9      2275989                       # TAGE provider for alt match (Count)
system.cpu0.branchPred.tage.altMatchProvider::10      3276541                       # TAGE provider for alt match (Count)
system.cpu0.branchPred.tage.altMatchProvider::11      4087364                       # TAGE provider for alt match (Count)
system.cpu0.branchPred.tage.altMatchProvider::12      3475041                       # TAGE provider for alt match (Count)
system.cpu0.branchPred.tage.altMatchProvider::13      2054228                       # TAGE provider for alt match (Count)
system.cpu0.branchPred.tage.altMatchProvider::14      1919887                       # TAGE provider for alt match (Count)
system.cpu0.branchPred.tage.altMatchProvider::15      2044115                       # TAGE provider for alt match (Count)
system.cpu0.branchPred.tage.altMatchProvider::16      1883454                       # TAGE provider for alt match (Count)
system.cpu0.branchPred.tage.altMatchProvider::17      1937437                       # TAGE provider for alt match (Count)
system.cpu0.branchPred.tage.altMatchProvider::18      2441565                       # TAGE provider for alt match (Count)
system.cpu0.branchPred.tage.altMatchProvider::19      1867177                       # TAGE provider for alt match (Count)
system.cpu0.branchPred.tage.altMatchProvider::20      1726403                       # TAGE provider for alt match (Count)
system.cpu0.branchPred.tage.altMatchProvider::21      1092863                       # TAGE provider for alt match (Count)
system.cpu0.branchPred.tage.altMatchProvider::22      1024570                       # TAGE provider for alt match (Count)
system.cpu0.branchPred.tage.altMatchProvider::23            0                       # TAGE provider for alt match (Count)
system.cpu0.branchPred.tage.altMatchProvider::24       997402                       # TAGE provider for alt match (Count)
system.cpu0.branchPred.tage.altMatchProvider::25            0                       # TAGE provider for alt match (Count)
system.cpu0.branchPred.tage.altMatchProvider::26       433501                       # TAGE provider for alt match (Count)
system.cpu0.branchPred.tage.altMatchProvider::27            0                       # TAGE provider for alt match (Count)
system.cpu0.branchPred.tage.altMatchProvider::28       140377                       # TAGE provider for alt match (Count)
system.cpu0.branchPred.tage.altMatchProvider::29            0                       # TAGE provider for alt match (Count)
system.cpu0.branchPred.tage.altMatchProvider::30            0                       # TAGE provider for alt match (Count)
system.cpu0.branchPred.tage.altMatchProvider::31            0                       # TAGE provider for alt match (Count)
system.cpu0.branchPred.tage.altMatchProvider::32       116987                       # TAGE provider for alt match (Count)
system.cpu0.branchPred.tage.altMatchProvider::33            0                       # TAGE provider for alt match (Count)
system.cpu0.branchPred.tage.altMatchProvider::34            0                       # TAGE provider for alt match (Count)
system.cpu0.branchPred.tage.altMatchProvider::35            0                       # TAGE provider for alt match (Count)
system.cpu0.branchPred.tage.altMatchProvider::36            0                       # TAGE provider for alt match (Count)
system.cpu0.clk_domain.clock                      294                       # Clock period in ticks (Tick)
system.cpu0.commit.commitSquashedInsts     2022933400                       # The number of squashed insts skipped by commit (Count)
system.cpu0.commit.commitNonSpecStalls       15387435                       # The number of times commit has been forced to stall to communicate backwards (Count)
system.cpu0.commit.branchMispredicts          8188075                       # The number of times a branch was mispredicted (Count)
system.cpu0.commit.numCommittedDist::samples   1903250825                       # Number of insts commited each cycle (Count)
system.cpu0.commit.numCommittedDist::mean     1.498239                       # Number of insts commited each cycle (Count)
system.cpu0.commit.numCommittedDist::stdev     2.478592                       # Number of insts commited each cycle (Count)
system.cpu0.commit.numCommittedDist::underflows            0      0.00%      0.00% # Number of insts commited each cycle (Count)
system.cpu0.commit.numCommittedDist::0     1085442078     57.03%     57.03% # Number of insts commited each cycle (Count)
system.cpu0.commit.numCommittedDist::1      291631266     15.32%     72.35% # Number of insts commited each cycle (Count)
system.cpu0.commit.numCommittedDist::2      113649305      5.97%     78.33% # Number of insts commited each cycle (Count)
system.cpu0.commit.numCommittedDist::3      126653756      6.65%     84.98% # Number of insts commited each cycle (Count)
system.cpu0.commit.numCommittedDist::4       54560894      2.87%     87.85% # Number of insts commited each cycle (Count)
system.cpu0.commit.numCommittedDist::5       12608211      0.66%     88.51% # Number of insts commited each cycle (Count)
system.cpu0.commit.numCommittedDist::6       33857052      1.78%     90.29% # Number of insts commited each cycle (Count)
system.cpu0.commit.numCommittedDist::7       10580348      0.56%     90.84% # Number of insts commited each cycle (Count)
system.cpu0.commit.numCommittedDist::8      174267915      9.16%    100.00% # Number of insts commited each cycle (Count)
system.cpu0.commit.numCommittedDist::overflows            0      0.00%    100.00% # Number of insts commited each cycle (Count)
system.cpu0.commit.numCommittedDist::min_value            0                       # Number of insts commited each cycle (Count)
system.cpu0.commit.numCommittedDist::max_value            8                       # Number of insts commited each cycle (Count)
system.cpu0.commit.numCommittedDist::total   1903250825                       # Number of insts commited each cycle (Count)
system.cpu0.commit.amos                             0                       # Number of atomic instructions committed (Count)
system.cpu0.commit.membars                   10258290                       # Number of memory barriers committed (Count)
system.cpu0.commit.functionCalls             31344115                       # Number of function calls committed. (Count)
system.cpu0.commit.committedInstType_0::No_OpClass      4493571      0.16%      0.16% # Class of committed instruction (Count)
system.cpu0.commit.committedInstType_0::IntAlu   2218761828     77.81%     77.97% # Class of committed instruction (Count)
system.cpu0.commit.committedInstType_0::IntMult       621178      0.02%     77.99% # Class of committed instruction (Count)
system.cpu0.commit.committedInstType_0::IntDiv          291      0.00%     77.99% # Class of committed instruction (Count)
system.cpu0.commit.committedInstType_0::FloatAdd       373306      0.01%     78.00% # Class of committed instruction (Count)
system.cpu0.commit.committedInstType_0::FloatCmp            0      0.00%     78.00% # Class of committed instruction (Count)
system.cpu0.commit.committedInstType_0::FloatCvt            0      0.00%     78.00% # Class of committed instruction (Count)
system.cpu0.commit.committedInstType_0::FloatMult            0      0.00%     78.00% # Class of committed instruction (Count)
system.cpu0.commit.committedInstType_0::FloatMultAcc            0      0.00%     78.00% # Class of committed instruction (Count)
system.cpu0.commit.committedInstType_0::FloatDiv            0      0.00%     78.00% # Class of committed instruction (Count)
system.cpu0.commit.committedInstType_0::FloatMisc            0      0.00%     78.00% # Class of committed instruction (Count)
system.cpu0.commit.committedInstType_0::FloatSqrt            0      0.00%     78.00% # Class of committed instruction (Count)
system.cpu0.commit.committedInstType_0::SimdAdd           10      0.00%     78.00% # Class of committed instruction (Count)
system.cpu0.commit.committedInstType_0::SimdAddAcc            0      0.00%     78.00% # Class of committed instruction (Count)
system.cpu0.commit.committedInstType_0::SimdAlu      9920641      0.35%     78.35% # Class of committed instruction (Count)
system.cpu0.commit.committedInstType_0::SimdCmp            0      0.00%     78.35% # Class of committed instruction (Count)
system.cpu0.commit.committedInstType_0::SimdCvt           66      0.00%     78.35% # Class of committed instruction (Count)
system.cpu0.commit.committedInstType_0::SimdMisc      2919563      0.10%     78.45% # Class of committed instruction (Count)
system.cpu0.commit.committedInstType_0::SimdMult            0      0.00%     78.45% # Class of committed instruction (Count)
system.cpu0.commit.committedInstType_0::SimdMultAcc            0      0.00%     78.45% # Class of committed instruction (Count)
system.cpu0.commit.committedInstType_0::SimdMatMultAcc            0      0.00%     78.45% # Class of committed instruction (Count)
system.cpu0.commit.committedInstType_0::SimdShift            3      0.00%     78.45% # Class of committed instruction (Count)
system.cpu0.commit.committedInstType_0::SimdShiftAcc            0      0.00%     78.45% # Class of committed instruction (Count)
system.cpu0.commit.committedInstType_0::SimdDiv            0      0.00%     78.45% # Class of committed instruction (Count)
system.cpu0.commit.committedInstType_0::SimdSqrt            0      0.00%     78.45% # Class of committed instruction (Count)
system.cpu0.commit.committedInstType_0::SimdFloatAdd      2200002      0.08%     78.53% # Class of committed instruction (Count)
system.cpu0.commit.committedInstType_0::SimdFloatAlu            0      0.00%     78.53% # Class of committed instruction (Count)
system.cpu0.commit.committedInstType_0::SimdFloatCmp            0      0.00%     78.53% # Class of committed instruction (Count)
system.cpu0.commit.committedInstType_0::SimdFloatCvt      2000002      0.07%     78.60% # Class of committed instruction (Count)
system.cpu0.commit.committedInstType_0::SimdFloatDiv            0      0.00%     78.60% # Class of committed instruction (Count)
system.cpu0.commit.committedInstType_0::SimdFloatMisc            0      0.00%     78.60% # Class of committed instruction (Count)
system.cpu0.commit.committedInstType_0::SimdFloatMult            1      0.00%     78.60% # Class of committed instruction (Count)
system.cpu0.commit.committedInstType_0::SimdFloatMultAcc            0      0.00%     78.60% # Class of committed instruction (Count)
system.cpu0.commit.committedInstType_0::SimdFloatMatMultAcc            0      0.00%     78.60% # Class of committed instruction (Count)
system.cpu0.commit.committedInstType_0::SimdFloatSqrt            0      0.00%     78.60% # Class of committed instruction (Count)
system.cpu0.commit.committedInstType_0::SimdReduceAdd            0      0.00%     78.60% # Class of committed instruction (Count)
system.cpu0.commit.committedInstType_0::SimdReduceAlu            0      0.00%     78.60% # Class of committed instruction (Count)
system.cpu0.commit.committedInstType_0::SimdReduceCmp            0      0.00%     78.60% # Class of committed instruction (Count)
system.cpu0.commit.committedInstType_0::SimdFloatReduceAdd            0      0.00%     78.60% # Class of committed instruction (Count)
system.cpu0.commit.committedInstType_0::SimdFloatReduceCmp            0      0.00%     78.60% # Class of committed instruction (Count)
system.cpu0.commit.committedInstType_0::SimdAes            0      0.00%     78.60% # Class of committed instruction (Count)
system.cpu0.commit.committedInstType_0::SimdAesMix            0      0.00%     78.60% # Class of committed instruction (Count)
system.cpu0.commit.committedInstType_0::SimdSha1Hash            0      0.00%     78.60% # Class of committed instruction (Count)
system.cpu0.commit.committedInstType_0::SimdSha1Hash2            0      0.00%     78.60% # Class of committed instruction (Count)
system.cpu0.commit.committedInstType_0::SimdSha256Hash            0      0.00%     78.60% # Class of committed instruction (Count)
system.cpu0.commit.committedInstType_0::SimdSha256Hash2            0      0.00%     78.60% # Class of committed instruction (Count)
system.cpu0.commit.committedInstType_0::SimdShaSigma2            0      0.00%     78.60% # Class of committed instruction (Count)
system.cpu0.commit.committedInstType_0::SimdShaSigma3            0      0.00%     78.60% # Class of committed instruction (Count)
system.cpu0.commit.committedInstType_0::SimdPredAlu            0      0.00%     78.60% # Class of committed instruction (Count)
system.cpu0.commit.committedInstType_0::Matrix            0      0.00%     78.60% # Class of committed instruction (Count)
system.cpu0.commit.committedInstType_0::MatrixMov            0      0.00%     78.60% # Class of committed instruction (Count)
system.cpu0.commit.committedInstType_0::MatrixOP            0      0.00%     78.60% # Class of committed instruction (Count)
system.cpu0.commit.committedInstType_0::MemRead    392417992     13.76%     92.36% # Class of committed instruction (Count)
system.cpu0.commit.committedInstType_0::MemWrite    211212473      7.41%     99.77% # Class of committed instruction (Count)
system.cpu0.commit.committedInstType_0::FloatMemRead      2062358      0.07%     99.84% # Class of committed instruction (Count)
system.cpu0.commit.committedInstType_0::FloatMemWrite      4540558      0.16%    100.00% # Class of committed instruction (Count)
system.cpu0.commit.committedInstType_0::IprAccess            0      0.00%    100.00% # Class of committed instruction (Count)
system.cpu0.commit.committedInstType_0::InstPrefetch            0      0.00%    100.00% # Class of committed instruction (Count)
system.cpu0.commit.committedInstType_0::SimdUnitStrideLoad            0      0.00%    100.00% # Class of committed instruction (Count)
system.cpu0.commit.committedInstType_0::SimdUnitStrideStore            0      0.00%    100.00% # Class of committed instruction (Count)
system.cpu0.commit.committedInstType_0::SimdUnitStrideMaskLoad            0      0.00%    100.00% # Class of committed instruction (Count)
system.cpu0.commit.committedInstType_0::SimdUnitStrideMaskStore            0      0.00%    100.00% # Class of committed instruction (Count)
system.cpu0.commit.committedInstType_0::SimdStridedLoad            0      0.00%    100.00% # Class of committed instruction (Count)
system.cpu0.commit.committedInstType_0::SimdStridedStore            0      0.00%    100.00% # Class of committed instruction (Count)
system.cpu0.commit.committedInstType_0::SimdIndexedLoad            0      0.00%    100.00% # Class of committed instruction (Count)
system.cpu0.commit.committedInstType_0::SimdIndexedStore            0      0.00%    100.00% # Class of committed instruction (Count)
system.cpu0.commit.committedInstType_0::SimdWholeRegisterLoad            0      0.00%    100.00% # Class of committed instruction (Count)
system.cpu0.commit.committedInstType_0::SimdWholeRegisterStore            0      0.00%    100.00% # Class of committed instruction (Count)
system.cpu0.commit.committedInstType_0::SimdUnitStrideFaultOnlyFirstLoad            0      0.00%    100.00% # Class of committed instruction (Count)
system.cpu0.commit.committedInstType_0::SimdUnitStrideSegmentedLoad            0      0.00%    100.00% # Class of committed instruction (Count)
system.cpu0.commit.committedInstType_0::SimdUnitStrideSegmentedStore            0      0.00%    100.00% # Class of committed instruction (Count)
system.cpu0.commit.committedInstType_0::SimdExt            0      0.00%    100.00% # Class of committed instruction (Count)
system.cpu0.commit.committedInstType_0::SimdFloatExt            0      0.00%    100.00% # Class of committed instruction (Count)
system.cpu0.commit.committedInstType_0::SimdConfig            0      0.00%    100.00% # Class of committed instruction (Count)
system.cpu0.commit.committedInstType_0::total   2851523843                       # Class of committed instruction (Count)
system.cpu0.commit.commitEligibleSamples    174267915                       # number cycles where commit BW limit reached (Cycle)
system.cpu0.commit.memoryViolations           5130152                       # Number of memory violations (Cycle)
system.cpu0.commit.stalledBranchMispredicts            0                       # Number of delayed branch squashes (Cycle)
system.cpu0.commit.stalledMemoryViolations            0                       # Number of delayed memory violation squashes (Cycle)
system.cpu0.commit.protStores               108318052                       # [Protean] Number of protected stores (Count)
system.cpu0.commit.regTaints                        0                       # [Protean] Number of r-taint primitives (Count)
system.cpu0.commit.memTaints                        0                       # [Protean] Number of m-taint primitives (Count)
system.cpu0.commit.xmitTaints               115538693                       # [Protean] Number of x-taint primitives (Count)
system.cpu0.commit.predAccess               218469392                       # [Protean] Correctly predicted access loads (Count)
system.cpu0.commit.predNoAccess                     0                       # [Protean] Correctly predicted no-access loads (Count)
system.cpu0.commit.mispredAccess            176010958                       # [Protean] Mispredicted access loads (Count)
system.cpu0.commit.mispredNoAccess                  0                       # [Protean] Mispredicted no-access loads (Count)
system.cpu0.commitStats0.numInsts          1676885015                       # Number of instructions committed (thread level) (Count)
system.cpu0.commitStats0.numOps            2851523843                       # Number of ops (including micro ops) committed (thread level) (Count)
system.cpu0.commitStats0.numInstsNotNOP    1676885015                       # Number of instructions committed excluding NOPs or prefetches (Count)
system.cpu0.commitStats0.numOpsNotNOP      2851523843                       # Number of Ops (including micro ops) Simulated (Count)
system.cpu0.commitStats0.cpi                 1.291301                       # CPI: cycles per instruction (thread level) ((Cycle/Count))
system.cpu0.commitStats0.ipc                 0.774413                       # IPC: instructions per cycle (thread level) ((Count/Cycle))
system.cpu0.commitStats0.numMemRefs         610233381                       # Number of memory references committed (Count)
system.cpu0.commitStats0.numFpInsts          26377537                       # Number of float instructions (Count)
system.cpu0.commitStats0.numIntInsts       2819013320                       # Number of integer instructions (Count)
system.cpu0.commitStats0.numLoadInsts       394480350                       # Number of load instructions (Count)
system.cpu0.commitStats0.numStoreInsts      215753031                       # Number of store instructions (Count)
system.cpu0.commitStats0.numVecInsts                0                       # Number of vector instructions (Count)
system.cpu0.commitStats0.committedInstType::No_OpClass      4493571      0.16%      0.16% # Class of committed instruction. (Count)
system.cpu0.commitStats0.committedInstType::IntAlu   2218761828     77.81%     77.97% # Class of committed instruction. (Count)
system.cpu0.commitStats0.committedInstType::IntMult       621178      0.02%     77.99% # Class of committed instruction. (Count)
system.cpu0.commitStats0.committedInstType::IntDiv          291      0.00%     77.99% # Class of committed instruction. (Count)
system.cpu0.commitStats0.committedInstType::FloatAdd       373306      0.01%     78.00% # Class of committed instruction. (Count)
system.cpu0.commitStats0.committedInstType::FloatCmp            0      0.00%     78.00% # Class of committed instruction. (Count)
system.cpu0.commitStats0.committedInstType::FloatCvt            0      0.00%     78.00% # Class of committed instruction. (Count)
system.cpu0.commitStats0.committedInstType::FloatMult            0      0.00%     78.00% # Class of committed instruction. (Count)
system.cpu0.commitStats0.committedInstType::FloatMultAcc            0      0.00%     78.00% # Class of committed instruction. (Count)
system.cpu0.commitStats0.committedInstType::FloatDiv            0      0.00%     78.00% # Class of committed instruction. (Count)
[...]
system.ruby.network.routers4.throttle00.avg_msg_wait_time          nan                       # Average time a message took to be forwarded (Ratio)
system.ruby.network.routers4.throttle00.avg_bandwidth         0.00                       # Average bandwidth (GB/s) (Ratio)
system.ruby.network.routers4.throttle00.avg_useful_bandwidth         0.00                       # Average usefull (only data) bandwidth (GB/s) (Ratio)
system.ruby.network.routers4.throttle01.acc_link_utilization            0                       # Accumulated link utilization (Count)
system.ruby.network.routers4.throttle01.link_utilization            0                       # Average link utilization (Ratio)
system.ruby.network.routers4.throttle01.total_msg_count            0                       # Total number of messages forwarded by this switch (Count)
system.ruby.network.routers4.throttle01.total_msg_bytes            0                       # Total number of bytes forwarded by this switch (Byte)
system.ruby.network.routers4.throttle01.total_data_msg_bytes            0                       # Total number of data bytes forwarded by this switch (Byte)
system.ruby.network.routers4.throttle01.total_msg_wait_time            0                       # Total time spend forwarding messages (Tick)
system.ruby.network.routers4.throttle01.total_stall_cy            0                       # Total time spent blocked on any output link (Cycle)
system.ruby.network.routers4.throttle01.total_bw_sat_cy            0                       # Total time bandwidth was saturated on any output link (Cycle)
system.ruby.network.routers4.throttle01.avg_msg_wait_time          nan                       # Average time a message took to be forwarded (Ratio)
system.ruby.network.routers4.throttle01.avg_bandwidth         0.00                       # Average bandwidth (GB/s) (Ratio)
system.ruby.network.routers4.throttle01.avg_useful_bandwidth         0.00                       # Average usefull (only data) bandwidth (GB/s) (Ratio)
system.ruby.network.routers5.percent_links_utilized            0                       (Unspecified)
system.ruby.network.routers5.power_state.pwrStateResidencyTicks::UNDEFINED 654684548742                       # Cumulative time (in ticks) in various power states (Tick)
system.ruby.network.routers5.throttle00.acc_link_utilization            0                       # Accumulated link utilization (Count)
system.ruby.network.routers5.throttle00.link_utilization            0                       # Average link utilization (Ratio)
system.ruby.network.routers5.throttle00.total_msg_count            0                       # Total number of messages forwarded by this switch (Count)
system.ruby.network.routers5.throttle00.total_msg_bytes            0                       # Total number of bytes forwarded by this switch (Byte)
system.ruby.network.routers5.throttle00.total_data_msg_bytes            0                       # Total number of data bytes forwarded by this switch (Byte)
system.ruby.network.routers5.throttle00.total_msg_wait_time            0                       # Total time spend forwarding messages (Tick)
system.ruby.network.routers5.throttle00.total_stall_cy            0                       # Total time spent blocked on any output link (Cycle)
system.ruby.network.routers5.throttle00.total_bw_sat_cy            0                       # Total time bandwidth was saturated on any output link (Cycle)
system.ruby.network.routers5.throttle00.avg_msg_wait_time          nan                       # Average time a message took to be forwarded (Ratio)
system.ruby.network.routers5.throttle00.avg_bandwidth         0.00                       # Average bandwidth (GB/s) (Ratio)
system.ruby.network.routers5.throttle00.avg_useful_bandwidth         0.00                       # Average usefull (only data) bandwidth (GB/s) (Ratio)
system.ruby.network.routers5.throttle01.acc_link_utilization            0                       # Accumulated link utilization (Count)
system.ruby.network.routers5.throttle01.link_utilization            0                       # Average link utilization (Ratio)
system.ruby.network.routers5.throttle01.total_msg_count            0                       # Total number of messages forwarded by this switch (Count)
system.ruby.network.routers5.throttle01.total_msg_bytes            0                       # Total number of bytes forwarded by this switch (Byte)
system.ruby.network.routers5.throttle01.total_data_msg_bytes            0                       # Total number of data bytes forwarded by this switch (Byte)
system.ruby.network.routers5.throttle01.total_msg_wait_time            0                       # Total time spend forwarding messages (Tick)
system.ruby.network.routers5.throttle01.total_stall_cy            0                       # Total time spent blocked on any output link (Cycle)
system.ruby.network.routers5.throttle01.total_bw_sat_cy            0                       # Total time bandwidth was saturated on any output link (Cycle)
system.ruby.network.routers5.throttle01.avg_msg_wait_time          nan                       # Average time a message took to be forwarded (Ratio)
system.ruby.network.routers5.throttle01.avg_bandwidth         0.00                       # Average bandwidth (GB/s) (Ratio)
system.ruby.network.routers5.throttle01.avg_useful_bandwidth         0.00                       # Average usefull (only data) bandwidth (GB/s) (Ratio)
system.ruby.network.routers6.percent_links_utilized            0                       (Unspecified)
system.ruby.network.routers6.power_state.pwrStateResidencyTicks::UNDEFINED 654684548742                       # Cumulative time (in ticks) in various power states (Tick)
system.ruby.network.routers6.throttle00.acc_link_utilization            0                       # Accumulated link utilization (Count)
system.ruby.network.routers6.throttle00.link_utilization            0                       # Average link utilization (Ratio)
system.ruby.network.routers6.throttle00.total_msg_count            0                       # Total number of messages forwarded by this switch (Count)
system.ruby.network.routers6.throttle00.total_msg_bytes            0                       # Total number of bytes forwarded by this switch (Byte)
system.ruby.network.routers6.throttle00.total_data_msg_bytes            0                       # Total number of data bytes forwarded by this switch (Byte)
system.ruby.network.routers6.throttle00.total_msg_wait_time            0                       # Total time spend forwarding messages (Tick)
system.ruby.network.routers6.throttle00.total_stall_cy            0                       # Total time spent blocked on any output link (Cycle)
system.ruby.network.routers6.throttle00.total_bw_sat_cy            0                       # Total time bandwidth was saturated on any output link (Cycle)
system.ruby.network.routers6.throttle00.avg_msg_wait_time          nan                       # Average time a message took to be forwarded (Ratio)
system.ruby.network.routers6.throttle00.avg_bandwidth         0.00                       # Average bandwidth (GB/s) (Ratio)
system.ruby.network.routers6.throttle00.avg_useful_bandwidth         0.00                       # Average usefull (only data) bandwidth (GB/s) (Ratio)
system.ruby.network.routers6.throttle01.acc_link_utilization            0                       # Accumulated link utilization (Count)
system.ruby.network.routers6.throttle01.link_utilization            0                       # Average link utilization (Ratio)
system.ruby.network.routers6.throttle01.total_msg_count            0                       # Total number of messages forwarded by this switch (Count)
system.ruby.network.routers6.throttle01.total_msg_bytes            0                       # Total number of bytes forwarded by this switch (Byte)
system.ruby.network.routers6.throttle01.total_data_msg_bytes            0                       # Total number of data bytes forwarded by this switch (Byte)
system.ruby.network.routers6.throttle01.total_msg_wait_time            0                       # Total time spend forwarding messages (Tick)
system.ruby.network.routers6.throttle01.total_stall_cy            0                       # Total time spent blocked on any output link (Cycle)
system.ruby.network.routers6.throttle01.total_bw_sat_cy            0                       # Total time bandwidth was saturated on any output link (Cycle)
system.ruby.network.routers6.throttle01.avg_msg_wait_time          nan                       # Average time a message took to be forwarded (Ratio)
system.ruby.network.routers6.throttle01.avg_bandwidth         0.00                       # Average bandwidth (GB/s) (Ratio)
system.ruby.network.routers6.throttle01.avg_useful_bandwidth         0.00                       # Average usefull (only data) bandwidth (GB/s) (Ratio)
system.ruby.network.routers7.percent_links_utilized            0                       (Unspecified)
system.ruby.network.routers7.power_state.pwrStateResidencyTicks::UNDEFINED 654684548742                       # Cumulative time (in ticks) in various power states (Tick)
system.ruby.network.routers7.throttle00.acc_link_utilization            0                       # Accumulated link utilization (Count)
system.ruby.network.routers7.throttle00.link_utilization            0                       # Average link utilization (Ratio)
system.ruby.network.routers7.throttle00.total_msg_count            0                       # Total number of messages forwarded by this switch (Count)
system.ruby.network.routers7.throttle00.total_msg_bytes            0                       # Total number of bytes forwarded by this switch (Byte)
system.ruby.network.routers7.throttle00.total_data_msg_bytes            0                       # Total number of data bytes forwarded by this switch (Byte)
system.ruby.network.routers7.throttle00.total_msg_wait_time            0                       # Total time spend forwarding messages (Tick)
system.ruby.network.routers7.throttle00.total_stall_cy            0                       # Total time spent blocked on any output link (Cycle)
system.ruby.network.routers7.throttle00.total_bw_sat_cy            0                       # Total time bandwidth was saturated on any output link (Cycle)
system.ruby.network.routers7.throttle00.avg_msg_wait_time          nan                       # Average time a message took to be forwarded (Ratio)
system.ruby.network.routers7.throttle00.avg_bandwidth         0.00                       # Average bandwidth (GB/s) (Ratio)
system.ruby.network.routers7.throttle00.avg_useful_bandwidth         0.00                       # Average usefull (only data) bandwidth (GB/s) (Ratio)
system.ruby.network.routers7.throttle01.acc_link_utilization            0                       # Accumulated link utilization (Count)
system.ruby.network.routers7.throttle01.link_utilization            0                       # Average link utilization (Ratio)
system.ruby.network.routers7.throttle01.total_msg_count            0                       # Total number of messages forwarded by this switch (Count)
system.ruby.network.routers7.throttle01.total_msg_bytes            0                       # Total number of bytes forwarded by this switch (Byte)
system.ruby.network.routers7.throttle01.total_data_msg_bytes            0                       # Total number of data bytes forwarded by this switch (Byte)
system.ruby.network.routers7.throttle01.total_msg_wait_time            0                       # Total time spend forwarding messages (Tick)
system.ruby.network.routers7.throttle01.total_stall_cy            0                       # Total time spent blocked on any output link (Cycle)
system.ruby.network.routers7.throttle01.total_bw_sat_cy            0                       # Total time bandwidth was saturated on any output link (Cycle)
system.ruby.network.routers7.throttle01.avg_msg_wait_time          nan                       # Average time a message took to be forwarded (Ratio)
system.ruby.network.routers7.throttle01.avg_bandwidth         0.00                       # Average bandwidth (GB/s) (Ratio)
system.ruby.network.routers7.throttle01.avg_useful_bandwidth         0.00                       # Average usefull (only data) bandwidth (GB/s) (Ratio)
system.ruby.network.routers8.percent_links_utilized            0                       (Unspecified)
system.ruby.network.routers8.power_state.pwrStateResidencyTicks::UNDEFINED 654684548742                       # Cumulative time (in ticks) in various power states (Tick)
system.ruby.network.routers8.throttle00.acc_link_utilization            0                       # Accumulated link utilization (Count)
system.ruby.network.routers8.throttle00.link_utilization            0                       # Average link utilization (Ratio)
system.ruby.network.routers8.throttle00.total_msg_count            0                       # Total number of messages forwarded by this switch (Count)
system.ruby.network.routers8.throttle00.total_msg_bytes            0                       # Total number of bytes forwarded by this switch (Byte)
system.ruby.network.routers8.throttle00.total_data_msg_bytes            0                       # Total number of data bytes forwarded by this switch (Byte)
system.ruby.network.routers8.throttle00.total_msg_wait_time            0                       # Total time spend forwarding messages (Tick)
system.ruby.network.routers8.throttle00.total_stall_cy            0                       # Total time spent blocked on any output link (Cycle)
system.ruby.network.routers8.throttle00.total_bw_sat_cy            0                       # Total time bandwidth was saturated on any output link (Cycle)
system.ruby.network.routers8.throttle00.avg_msg_wait_time          nan                       # Average time a message took to be forwarded (Ratio)
system.ruby.network.routers8.throttle00.avg_bandwidth         0.00                       # Average bandwidth (GB/s) (Ratio)
system.ruby.network.routers8.throttle00.avg_useful_bandwidth         0.00                       # Average usefull (only data) bandwidth (GB/s) (Ratio)
system.ruby.network.routers8.throttle01.acc_link_utilization            0                       # Accumulated link utilization (Count)
system.ruby.network.routers8.throttle01.link_utilization            0                       # Average link utilization (Ratio)
system.ruby.network.routers8.throttle01.total_msg_count            0                       # Total number of messages forwarded by this switch (Count)
system.ruby.network.routers8.throttle01.total_msg_bytes            0                       # Total number of bytes forwarded by this switch (Byte)
system.ruby.network.routers8.throttle01.total_data_msg_bytes            0                       # Total number of data bytes forwarded by this switch (Byte)
system.ruby.network.routers8.throttle01.total_msg_wait_time            0                       # Total time spend forwarding messages (Tick)
system.ruby.network.routers8.throttle01.total_stall_cy            0                       # Total time spent blocked on any output link (Cycle)
system.ruby.network.routers8.throttle01.total_bw_sat_cy            0                       # Total time bandwidth was saturated on any output link (Cycle)
system.ruby.network.routers8.throttle01.avg_msg_wait_time          nan                       # Average time a message took to be forwarded (Ratio)
system.ruby.network.routers8.throttle01.avg_bandwidth         0.00                       # Average bandwidth (GB/s) (Ratio)
system.ruby.network.routers8.throttle01.avg_useful_bandwidth         0.00                       # Average usefull (only data) bandwidth (GB/s) (Ratio)
system.ruby.network.routers9.percent_links_utilized            0                       (Unspecified)
system.ruby.network.routers9.power_state.pwrStateResidencyTicks::UNDEFINED 654684548742                       # Cumulative time (in ticks) in various power states (Tick)
system.ruby.network.routers9.throttle00.acc_link_utilization            0                       # Accumulated link utilization (Count)
system.ruby.network.routers9.throttle00.link_utilization            0                       # Average link utilization (Ratio)
system.ruby.network.routers9.throttle00.total_msg_count            0                       # Total number of messages forwarded by this switch (Count)
system.ruby.network.routers9.throttle00.total_msg_bytes            0                       # Total number of bytes forwarded by this switch (Byte)
system.ruby.network.routers9.throttle00.total_data_msg_bytes            0                       # Total number of data bytes forwarded by this switch (Byte)
system.ruby.network.routers9.throttle00.total_msg_wait_time            0                       # Total time spend forwarding messages (Tick)
system.ruby.network.routers9.throttle00.total_stall_cy            0                       # Total time spent blocked on any output link (Cycle)
system.ruby.network.routers9.throttle00.total_bw_sat_cy            0                       # Total time bandwidth was saturated on any output link (Cycle)
system.ruby.network.routers9.throttle00.avg_msg_wait_time          nan                       # Average time a message took to be forwarded (Ratio)
system.ruby.network.routers9.throttle00.avg_bandwidth         0.00                       # Average bandwidth (GB/s) (Ratio)
system.ruby.network.routers9.throttle00.avg_useful_bandwidth         0.00                       # Average usefull (only data) bandwidth (GB/s) (Ratio)
system.ruby.network.routers9.throttle01.acc_link_utilization            0                       # Accumulated link utilization (Count)
system.ruby.network.routers9.throttle01.link_utilization            0                       # Average link utilization (Ratio)
system.ruby.network.routers9.throttle01.total_msg_count            0                       # Total number of messages forwarded by this switch (Count)
system.ruby.network.routers9.throttle01.total_msg_bytes            0                       # Total number of bytes forwarded by this switch (Byte)
system.ruby.network.routers9.throttle01.total_data_msg_bytes            0                       # Total number of data bytes forwarded by this switch (Byte)
system.ruby.network.routers9.throttle01.total_msg_wait_time            0                       # Total time spend forwarding messages (Tick)
system.ruby.network.routers9.throttle01.total_stall_cy            0                       # Total time spent blocked on any output link (Cycle)
system.ruby.network.routers9.throttle01.total_bw_sat_cy            0                       # Total time bandwidth was saturated on any output link (Cycle)
system.ruby.network.routers9.throttle01.avg_msg_wait_time          nan                       # Average time a message took to be forwarded (Ratio)
system.ruby.network.routers9.throttle01.avg_bandwidth         0.00                       # Average bandwidth (GB/s) (Ratio)
system.ruby.network.routers9.throttle01.avg_useful_bandwidth         0.00                       # Average usefull (only data) bandwidth (GB/s) (Ratio)
system.ruby.power_state.pwrStateResidencyTicks::UNDEFINED 654684548742                       # Cumulative time (in ticks) in various power states (Tick)
system.sys_port_proxy.power_state.pwrStateResidencyTicks::UNDEFINED 654684548742                       # Cumulative time (in ticks) in various power states (Tick)
system.voltage_domain.voltage                       1                       # Voltage in Volts (Volt)
system.workload.inst.arm                            0                       # number of arm instructions executed (Count)
system.workload.inst.quiesce                        0                       # number of quiesce instructions executed (Count)

---------- End Simulation Statistics   ----------
