
---------- Begin Simulation Statistics ----------
simSeconds                                   0.274874                       # Number of seconds simulated (Second)
simTicks                                 274874403888                       # Number of ticks simulated (Tick)
finalTick                                274874403888                       # Number of ticks from beginning of simulation (restored from checkpoints and never reset) (Tick)
simFreq                                  1000000000000                       # The number of ticks per simulated second ((Tick/Second))
hostSeconds                                  41038.97                       # Real time elapsed on the host (Second)
hostTickRate                                  6697887                       # The number of ticks simulated per host second (ticks/s) ((Tick/Second))
hostMemory                                    1312080                       # Number of bytes of host memory used (Byte)
simInsts                                   1097575410                       # Number of instructions simulated (Count)
simOps                                     2030796482                       # Number of ops (including micro ops) simulated (Count)
hostInstRate                                    26745                       # Simulator instruction rate (inst/s) ((Count/Second))
hostOpRate                                      49485                       # Simulator op (including micro ops) rate (op/s) ((Count/Second))
system.clk_domain.clock                          1000                       # Clock period in ticks (Tick)
system.cpu0.numCycles                         8305146                       # Number of cpu cycles simulated (Cycle)
system.cpu0.cpi                              0.770295                       # CPI: cycles per instruction (core level) ((Cycle/Count))
system.cpu0.ipc                              1.298204                       # IPC: instructions per cycle (core level) ((Count/Cycle))
system.cpu0.numWorkItemsStarted                     0                       # Number of work items this cpu started (Count)
system.cpu0.numWorkItemsCompleted                   0                       # Number of work items this cpu completed (Count)
system.cpu0.instsAdded                       22022944                       # Number of instructions added to the IQ (excludes non-spec) (Count)
system.cpu0.nonSpecInstsAdded                    3880                       # Number of non-speculative instructions added to the IQ (Count)
system.cpu0.instsIssued                      21336831                       # Number of instructions issued (Count)
system.cpu0.squashedInstsIssued                179643                       # Number of squashed instructions issued (Count)
system.cpu0.squashedInstsExamined             2205017                       # Number of squashed instructions iterated over during squash; mainly for profiling (Count)
system.cpu0.squashedOperandsExamined          4736400                       # Number of squashed operands that are examined and possibly removed from graph (Count)
system.cpu0.squashedNonSpecRemoved                550                       # Number of squashed non-spec instructions that were removed (Count)
system.cpu0.numIssuedDist::samples            8205728                       # Number of insts issued each cycle (Count)
system.cpu0.numIssuedDist::mean              2.600236                       # Number of insts issued each cycle (Count)
system.cpu0.numIssuedDist::stdev             2.087549                       # Number of insts issued each cycle (Count)
system.cpu0.numIssuedDist::underflows               0      0.00%      0.00% # Number of insts issued each cycle (Count)
system.cpu0.numIssuedDist::0                  1612322     19.65%     19.65% # Number of insts issued each cycle (Count)
system.cpu0.numIssuedDist::1                  1420334     17.31%     36.96% # Number of insts issued each cycle (Count)
system.cpu0.numIssuedDist::2                  1259725     15.35%     52.31% # Number of insts issued each cycle (Count)
system.cpu0.numIssuedDist::3                  1189265     14.49%     66.80% # Number of insts issued each cycle (Count)
system.cpu0.numIssuedDist::4                  1188742     14.49%     81.29% # Number of insts issued each cycle (Count)
system.cpu0.numIssuedDist::5                   628458      7.66%     88.95% # Number of insts issued each cycle (Count)
system.cpu0.numIssuedDist::6                   575876      7.02%     95.97% # Number of insts issued each cycle (Count)
system.cpu0.numIssuedDist::7                   171310      2.09%     98.05% # Number of insts issued each cycle (Count)
system.cpu0.numIssuedDist::8                   159696      1.95%    100.00% # Number of insts issued each cycle (Count)
system.cpu0.numIssuedDist::overflows                0      0.00%    100.00% # Number of insts issued each cycle (Count)
system.cpu0.numIssuedDist::min_value                0                       # Number of insts issued each cycle (Count)
system.cpu0.numIssuedDist::max_value                8                       # Number of insts issued each cycle (Count)
system.cpu0.numIssuedDist::total              8205728                       # Number of insts issued each cycle (Count)
system.cpu0.statFuBusy::No_OpClass                  0      0.00%      0.00% # attempts to use FU when none available (Count)
system.cpu0.statFuBusy::IntAlu                  12193     16.97%     16.97% # attempts to use FU when none available (Count)
system.cpu0.statFuBusy::IntMult                     0      0.00%     16.97% # attempts to use FU when none available (Count)
system.cpu0.statFuBusy::IntDiv                      0      0.00%     16.97% # attempts to use FU when none available (Count)
system.cpu0.statFuBusy::FloatAdd                    0      0.00%     16.97% # attempts to use FU when none available (Count)
system.cpu0.statFuBusy::FloatCmp                    0      0.00%     16.97% # attempts to use FU when none available (Count)
system.cpu0.statFuBusy::FloatCvt                    0      0.00%     16.97% # attempts to use FU when none available (Count)
system.cpu0.statFuBusy::FloatMult                   0      0.00%     16.97% # attempts to use FU when none available (Count)
system.cpu0.statFuBusy::FloatMultAcc                0      0.00%     16.97% # attempts to use FU when none available (Count)
system.cpu0.statFuBusy::FloatDiv                    0      0.00%     16.97% # attempts to use FU when none available (Count)
system.cpu0.statFuBusy::FloatMisc                   0      0.00%     16.97% # attempts to use FU when none available (Count)
system.cpu0.statFuBusy::FloatSqrt                   0      0.00%     16.97% # attempts to use FU when none available (Count)
system.cpu0.statFuBusy::SimdAdd                     0      0.00%     16.97% # attempts to use FU when none available (Count)
system.cpu0.statFuBusy::SimdAddAcc                  0      0.00%     16.97% # attempts to use FU when none available (Count)
system.cpu0.statFuBusy::SimdAlu                     0      0.00%     16.97% # attempts to use FU when none available (Count)
system.cpu0.statFuBusy::SimdCmp                     0      0.00%     16.97% # attempts to use FU when none available (Count)
system.cpu0.statFuBusy::SimdCvt                     0      0.00%     16.97% # attempts to use FU when none available (Count)
system.cpu0.statFuBusy::SimdMisc                    0      0.00%     16.97% # attempts to use FU when none available (Count)
system.cpu0.statFuBusy::SimdMult                    0      0.00%     16.97% # attempts to use FU when none available (Count)
system.cpu0.statFuBusy::SimdMultAcc                 0      0.00%     16.97% # attempts to use FU when none available (Count)
system.cpu0.statFuBusy::SimdMatMultAcc              0      0.00%     16.97% # attempts to use FU when none available (Count)
system.cpu0.statFuBusy::SimdShift                   0      0.00%     16.97% # attempts to use FU when none available (Count)
system.cpu0.statFuBusy::SimdShiftAcc                0      0.00%     16.97% # attempts to use FU when none available (Count)
system.cpu0.statFuBusy::SimdDiv                     0      0.00%     16.97% # attempts to use FU when none available (Count)
system.cpu0.statFuBusy::SimdSqrt                    0      0.00%     16.97% # attempts to use FU when none available (Count)
system.cpu0.statFuBusy::SimdFloatAdd                0      0.00%     16.97% # attempts to use FU when none available (Count)
system.cpu0.statFuBusy::SimdFloatAlu                0      0.00%     16.97% # attempts to use FU when none available (Count)
system.cpu0.statFuBusy::SimdFloatCmp                0      0.00%     16.97% # attempts to use FU when none available (Count)
system.cpu0.statFuBusy::SimdFloatCvt                0      0.00%     16.97% # attempts to use FU when none available (Count)
system.cpu0.statFuBusy::SimdFloatDiv                0      0.00%     16.97% # attempts to use FU when none available (Count)
system.cpu0.statFuBusy::SimdFloatMisc               0      0.00%     16.97% # attempts to use FU when none available (Count)
system.cpu0.statFuBusy::SimdFloatMult               0      0.00%     16.97% # attempts to use FU when none available (Count)
system.cpu0.statFuBusy::SimdFloatMultAcc            0      0.00%     16.97% # attempts to use FU when none available (Count)
system.cpu0.statFuBusy::SimdFloatMatMultAcc            0      0.00%     16.97% # attempts to use FU when none available (Count)
system.cpu0.statFuBusy::SimdFloatSqrt               0      0.00%     16.97% # attempts to use FU when none available (Count)
system.cpu0.statFuBusy::SimdReduceAdd               0      0.00%     16.97% # attempts to use FU when none available (Count)
system.cpu0.statFuBusy::SimdReduceAlu               0      0.00%     16.97% # attempts to use FU when none available (Count)
system.cpu0.statFuBusy::SimdReduceCmp               0      0.00%     16.97% # attempts to use FU when none available (Count)
system.cpu0.statFuBusy::SimdFloatReduceAdd            0      0.00%     16.97% # attempts to use FU when none available (Count)
system.cpu0.statFuBusy::SimdFloatReduceCmp            0      0.00%     16.97% # attempts to use FU when none available (Count)
system.cpu0.statFuBusy::SimdAes                     0      0.00%     16.97% # attempts to use FU when none available (Count)
system.cpu0.statFuBusy::SimdAesMix                  0      0.00%     16.97% # attempts to use FU when none available (Count)
system.cpu0.statFuBusy::SimdSha1Hash                0      0.00%     16.97% # attempts to use FU when none available (Count)
system.cpu0.statFuBusy::SimdSha1Hash2               0      0.00%     16.97% # attempts to use FU when none available (Count)
system.cpu0.statFuBusy::SimdSha256Hash              0      0.00%     16.97% # attempts to use FU when none available (Count)
system.cpu0.statFuBusy::SimdSha256Hash2             0      0.00%     16.97% # attempts to use FU when none available (Count)
system.cpu0.statFuBusy::SimdShaSigma2               0      0.00%     16.97% # attempts to use FU when none available (Count)
system.cpu0.statFuBusy::SimdShaSigma3               0      0.00%     16.97% # attempts to use FU when none available (Count)
system.cpu0.statFuBusy::SimdPredAlu                 0      0.00%     16.97% # attempts to use FU when none available (Count)
system.cpu0.statFuBusy::Matrix                      0      0.00%     16.97% # attempts to use FU when none available (Count)
system.cpu0.statFuBusy::MatrixMov                   0      0.00%     16.97% # attempts to use FU when none available (Count)
system.cpu0.statFuBusy::MatrixOP                    0      0.00%     16.97% # attempts to use FU when none available (Count)
system.cpu0.statFuBusy::MemRead                 22256     30.98%     47.95% # attempts to use FU when none available (Count)
system.cpu0.statFuBusy::MemWrite                21279     29.62%     77.57% # attempts to use FU when none available (Count)
system.cpu0.statFuBusy::FloatMemRead             6356      8.85%     86.42% # attempts to use FU when none available (Count)
system.cpu0.statFuBusy::FloatMemWrite            9757     13.58%    100.00% # attempts to use FU when none available (Count)
system.cpu0.statFuBusy::IprAccess                   0      0.00%    100.00% # attempts to use FU when none available (Count)
system.cpu0.statFuBusy::InstPrefetch                0      0.00%    100.00% # attempts to use FU when none available (Count)
system.cpu0.statFuBusy::SimdUnitStrideLoad            0      0.00%    100.00% # attempts to use FU when none available (Count)
system.cpu0.statFuBusy::SimdUnitStrideStore            0      0.00%    100.00% # attempts to use FU when none available (Count)
system.cpu0.statFuBusy::SimdUnitStrideMaskLoad            0      0.00%    100.00% # attempts to use FU when none available (Count)
system.cpu0.statFuBusy::SimdUnitStrideMaskStore            0      0.00%    100.00% # attempts to use FU when none available (Count)
system.cpu0.statFuBusy::SimdStridedLoad             0      0.00%    100.00% # attempts to use FU when none available (Count)
system.cpu0.statFuBusy::SimdStridedStore            0      0.00%    100.00% # attempts to use FU when none available (Count)
system.cpu0.statFuBusy::SimdIndexedLoad             0      0.00%    100.00% # attempts to use FU when none available (Count)
system.cpu0.statFuBusy::SimdIndexedStore            0      0.00%    100.00% # attempts to use FU when none available (Count)
system.cpu0.statFuBusy::SimdWholeRegisterLoad            0      0.00%    100.00% # attempts to use FU when none available (Count)
system.cpu0.statFuBusy::SimdWholeRegisterStore            0      0.00%    100.00% # attempts to use FU when none available (Count)
system.cpu0.statFuBusy::SimdUnitStrideFaultOnlyFirstLoad            0      0.00%    100.00% # attempts to use FU when none available (Count)
system.cpu0.statFuBusy::SimdUnitStrideSegmentedLoad            0      0.00%    100.00% # attempts to use FU when none available (Count)
system.cpu0.statFuBusy::SimdUnitStrideSegmentedStore            0      0.00%    100.00% # attempts to use FU when none available (Count)
system.cpu0.statFuBusy::SimdExt                     0      0.00%    100.00% # attempts to use FU when none available (Count)
system.cpu0.statFuBusy::SimdFloatExt                0      0.00%    100.00% # attempts to use FU when none available (Count)
system.cpu0.statFuBusy::SimdConfig                  0      0.00%    100.00% # attempts to use FU when none available (Count)
system.cpu0.statIssuedInstType_0::No_OpClass       409953      1.92%      1.92% # Number of instructions issued per FU type, per thread (Count)
system.cpu0.statIssuedInstType_0::IntAlu     13412960     62.86%     64.78% # Number of instructions issued per FU type, per thread (Count)
system.cpu0.statIssuedInstType_0::IntMult       165439      0.78%     65.56% # Number of instructions issued per FU type, per thread (Count)
system.cpu0.statIssuedInstType_0::IntDiv          139      0.00%     65.56% # Number of instructions issued per FU type, per thread (Count)
system.cpu0.statIssuedInstType_0::FloatAdd       441840      2.07%     67.63% # Number of instructions issued per FU type, per thread (Count)
system.cpu0.statIssuedInstType_0::FloatCmp            0      0.00%     67.63% # Number of instructions issued per FU type, per thread (Count)
system.cpu0.statIssuedInstType_0::FloatCvt            0      0.00%     67.63% # Number of instructions issued per FU type, per thread (Count)
system.cpu0.statIssuedInstType_0::FloatMult            0      0.00%     67.63% # Number of instructions issued per FU type, per thread (Count)
system.cpu0.statIssuedInstType_0::FloatMultAcc            0      0.00%     67.63% # Number of instructions issued per FU type, per thread (Count)
system.cpu0.statIssuedInstType_0::FloatDiv            0      0.00%     67.63% # Number of instructions issued per FU type, per thread (Count)
system.cpu0.statIssuedInstType_0::FloatMisc            0      0.00%     67.63% # Number of instructions issued per FU type, per thread (Count)
system.cpu0.statIssuedInstType_0::FloatSqrt            0      0.00%     67.63% # Number of instructions issued per FU type, per thread (Count)
system.cpu0.statIssuedInstType_0::SimdAdd           10      0.00%     67.63% # Number of instructions issued per FU type, per thread (Count)
system.cpu0.statIssuedInstType_0::SimdAddAcc            0      0.00%     67.63% # Number of instructions issued per FU type, per thread (Count)
system.cpu0.statIssuedInstType_0::SimdAlu       279372      1.31%     68.94% # Number of instructions issued per FU type, per thread (Count)
system.cpu0.statIssuedInstType_0::SimdCmp            0      0.00%     68.94% # Number of instructions issued per FU type, per thread (Count)
system.cpu0.statIssuedInstType_0::SimdCvt           12      0.00%     68.94% # Number of instructions issued per FU type, per thread (Count)
system.cpu0.statIssuedInstType_0::SimdMisc       153720      0.72%     69.66% # Number of instructions issued per FU type, per thread (Count)
system.cpu0.statIssuedInstType_0::SimdMult            0      0.00%     69.66% # Number of instructions issued per FU type, per thread (Count)
system.cpu0.statIssuedInstType_0::SimdMultAcc            0      0.00%     69.66% # Number of instructions issued per FU type, per thread (Count)
system.cpu0.statIssuedInstType_0::SimdMatMultAcc            0      0.00%     69.66% # Number of instructions issued per FU type, per thread (Count)
system.cpu0.statIssuedInstType_0::SimdShift            9      0.00%     69.66% # Number of instructions issued per FU type, per thread (Count)
system.cpu0.statIssuedInstType_0::SimdShiftAcc            0      0.00%     69.66% # Number of instructions issued per FU type, per thread (Count)
system.cpu0.statIssuedInstType_0::SimdDiv            0      0.00%     69.66% # Number of instructions issued per FU type, per thread (Count)
system.cpu0.statIssuedInstType_0::SimdSqrt            0      0.00%     69.66% # Number of instructions issued per FU type, per thread (Count)
system.cpu0.statIssuedInstType_0::SimdFloatAdd        79325      0.37%     70.03% # Number of instructions issued per FU type, per thread (Count)
system.cpu0.statIssuedInstType_0::SimdFloatAlu            0      0.00%     70.03% # Number of instructions issued per FU type, per thread (Count)
system.cpu0.statIssuedInstType_0::SimdFloatCmp            0      0.00%     70.03% # Number of instructions issued per FU type, per thread (Count)
system.cpu0.statIssuedInstType_0::SimdFloatCvt       398215      1.87%     71.90% # Number of instructions issued per FU type, per thread (Count)
system.cpu0.statIssuedInstType_0::SimdFloatDiv         4083      0.02%     71.92% # Number of instructions issued per FU type, per thread (Count)
system.cpu0.statIssuedInstType_0::SimdFloatMisc            0      0.00%     71.92% # Number of instructions issued per FU type, per thread (Count)
system.cpu0.statIssuedInstType_0::SimdFloatMult       327063      1.53%     73.45% # Number of instructions issued per FU type, per thread (Count)
system.cpu0.statIssuedInstType_0::SimdFloatMultAcc            0      0.00%     73.45% # Number of instructions issued per FU type, per thread (Count)
system.cpu0.statIssuedInstType_0::SimdFloatMatMultAcc            0      0.00%     73.45% # Number of instructions issued per FU type, per thread (Count)
system.cpu0.statIssuedInstType_0::SimdFloatSqrt            0      0.00%     73.45% # Number of instructions issued per FU type, per thread (Count)
system.cpu0.statIssuedInstType_0::SimdReduceAdd            0      0.00%     73.45% # Number of instructions issued per FU type, per thread (Count)
system.cpu0.statIssuedInstType_0::SimdReduceAlu            0      0.00%     73.45% # Number of instructions issued per FU type, per thread (Count)
system.cpu0.statIssuedInstType_0::SimdReduceCmp            0      0.00%     73.45% # Number of instructions issued per FU type, per thread (Count)
system.cpu0.statIssuedInstType_0::SimdFloatReduceAdd            0      0.00%     73.45% # Number of instructions issued per FU type, per thread (Count)
system.cpu0.statIssuedInstType_0::SimdFloatReduceCmp            0      0.00%     73.45% # Number of instructions issued per FU type, per thread (Count)
system.cpu0.statIssuedInstType_0::SimdAes            0      0.00%     73.45% # Number of instructions issued per FU type, per thread (Count)
system.cpu0.statIssuedInstType_0::SimdAesMix            0      0.00%     73.45% # Number of instructions issued per FU type, per thread (Count)
system.cpu0.statIssuedInstType_0::SimdSha1Hash            0      0.00%     73.45% # Number of instructions issued per FU type, per thread (Count)
system.cpu0.statIssuedInstType_0::SimdSha1Hash2            0      0.00%     73.45% # Number of instructions issued per FU type, per thread (Count)
system.cpu0.statIssuedInstType_0::SimdSha256Hash            0      0.00%     73.45% # Number of instructions issued per FU type, per thread (Count)
system.cpu0.statIssuedInstType_0::SimdSha256Hash2            0      0.00%     73.45% # Number of instructions issued per FU type, per thread (Count)
system.cpu0.statIssuedInstType_0::SimdShaSigma2            0      0.00%     73.45% # Number of instructions issued per FU type, per thread (Count)
system.cpu0.statIssuedInstType_0::SimdShaSigma3            0      0.00%     73.45% # Number of instructions issued per FU type, per thread (Count)
system.cpu0.statIssuedInstType_0::SimdPredAlu            0      0.00%     73.45% # Number of instructions issued per FU type, per thread (Count)
system.cpu0.statIssuedInstType_0::Matrix            0      0.00%     73.45% # Number of instructions issued per FU type, per thread (Count)
system.cpu0.statIssuedInstType_0::MatrixMov            0      0.00%     73.45% # Number of instructions issued per FU type, per thread (Count)
system.cpu0.statIssuedInstType_0::MatrixOP            0      0.00%     73.45% # Number of instructions issued per FU type, per thread (Count)
system.cpu0.statIssuedInstType_0::MemRead      2817236     13.20%     86.65% # Number of instructions issued per FU type, per thread (Count)
system.cpu0.statIssuedInstType_0::MemWrite      1648327      7.73%     94.38% # Number of instructions issued per FU type, per thread (Count)
system.cpu0.statIssuedInstType_0::FloatMemRead       611412      2.87%     97.25% # Number of instructions issued per FU type, per thread (Count)
system.cpu0.statIssuedInstType_0::FloatMemWrite       587716      2.75%    100.00% # Number of instructions issued per FU type, per thread (Count)
system.cpu0.statIssuedInstType_0::IprAccess            0      0.00%    100.00% # Number of instructions issued per FU type, per thread (Count)
system.cpu0.statIssuedInstType_0::InstPrefetch            0      0.00%    100.00% # Number of instructions issued per FU type, per thread (Count)
system.cpu0.statIssuedInstType_0::SimdUnitStrideLoad            0      0.00%    100.00% # Number of instructions issued per FU type, per thread (Count)
system.cpu0.statIssuedInstType_0::SimdUnitStrideStore            0      0.00%    100.00% # Number of instructions issued per FU type, per thread (Count)
system.cpu0.statIssuedInstType_0::SimdUnitStrideMaskLoad            0      0.00%    100.00% # Number of instructions issued per FU type, per thread (Count)
system.cpu0.statIssuedInstType_0::SimdUnitStrideMaskStore            0      0.00%    100.00% # Number of instructions issued per FU type, per thread (Count)
system.cpu0.statIssuedInstType_0::SimdStridedLoad            0      0.00%    100.00% # Number of instructions issued per FU type, per thread (Count)
system.cpu0.statIssuedInstType_0::SimdStridedStore            0      0.00%    100.00% # Number of instructions issued per FU type, per thread (Count)
system.cpu0.statIssuedInstType_0::SimdIndexedLoad            0      0.00%    100.00% # Number of instructions issued per FU type, per thread (Count)
system.cpu0.statIssuedInstType_0::SimdIndexedStore            0      0.00%    100.00% # Number of instructions issued per FU type, per thread (Count)
system.cpu0.statIssuedInstType_0::SimdWholeRegisterLoad            0      0.00%    100.00% # Number of instructions issued per FU type, per thread (Count)
system.cpu0.statIssuedInstType_0::SimdWholeRegisterStore            0      0.00%    100.00% # Number of instructions issued per FU type, per thread (Count)
system.cpu0.statIssuedInstType_0::SimdUnitStrideFaultOnlyFirstLoad            0      0.00%    100.00% # Number of instructions issued per FU type, per thread (Count)
system.cpu0.statIssuedInstType_0::SimdUnitStrideSegmentedLoad            0      0.00%    100.00% # Number of instructions issued per FU type, per thread (Count)
system.cpu0.statIssuedInstType_0::SimdUnitStrideSegmentedStore            0      0.00%    100.00% # Number of instructions issued per FU type, per thread (Count)
system.cpu0.statIssuedInstType_0::SimdExt            0      0.00%    100.00% # Number of instructions issued per FU type, per thread (Count)
system.cpu0.statIssuedInstType_0::SimdFloatExt            0      0.00%    100.00% # Number of instructions issued per FU type, per thread (Count)
system.cpu0.statIssuedInstType_0::SimdConfig            0      0.00%    100.00% # Number of instructions issued per FU type, per thread (Count)
system.cpu0.statIssuedInstType_0::total      21336831                       # Number of instructions issued per FU type, per thread (Count)
system.cpu0.issueRate                        2.569110                       # Inst issue rate ((Count/Cycle))
system.cpu0.fuBusy                              71841                       # FU busy when requested (Count)
system.cpu0.fuBusyRate                       0.003367                       # FU busy rate (busy events/executed inst) ((Count/Count))
system.cpu0.intInstQueueReads                45043355                       # Number of integer instruction queue reads (Count)
system.cpu0.intInstQueueWrites               19625271                       # Number of integer instruction queue writes (Count)
system.cpu0.intInstQueueWakeupAccesses       18208087                       # Number of integer instruction queue wakeup accesses (Count)
system.cpu0.fpInstQueueReads                  6087519                       # Number of floating instruction queue reads (Count)
system.cpu0.fpInstQueueWrites                 4608120                       # Number of floating instruction queue writes (Count)
system.cpu0.fpInstQueueWakeupAccesses         2385009                       # Number of floating instruction queue wakeup accesses (Count)
system.cpu0.vecInstQueueReads                       0                       # Number of vector instruction queue reads (Count)
system.cpu0.vecInstQueueWrites                      0                       # Number of vector instruction queue writes (Count)
system.cpu0.vecInstQueueWakeupAccesses              0                       # Number of vector instruction queue wakeup accesses (Count)
system.cpu0.intAluAccesses                   18022115                       # Number of integer alu accesses (Count)
system.cpu0.fpAluAccesses                     2976604                       # Number of floating point alu accesses (Count)
system.cpu0.vecAluAccesses                          0                       # Number of vector alu accesses (Count)
system.cpu0.numSquashedInsts                    23277                       # Number of squashed instructions skipped in execute (Count)
system.cpu0.numSwp                                  0                       # Number of swp insts executed (Count)
system.cpu0.timesIdled                            629                       # Number of times that the entire CPU went into an idle state and unscheduled itself (Count)
system.cpu0.idleCycles                          99418                       # Total number of cycles that the CPU has spent unscheduled due to idling (Cycle)
system.cpu0.quiesceCycles                   926641807                       # Total number of cycles that CPU has spent quiesced or waiting for an interrupt (Cycle)
system.cpu0.MemDepUnit__0.insertedLoads       3226369                       # Number of loads inserted to the mem dependence unit. (Count)
system.cpu0.MemDepUnit__0.insertedStores      2120057                       # Number of stores inserted to the mem dependence unit. (Count)
system.cpu0.MemDepUnit__0.conflictingLoads       454274                       # Number of conflicting loads. (Count)
system.cpu0.MemDepUnit__0.conflictingStores       211073                       # Number of conflicting stores. (Count)
system.cpu0.MemDepUnit__1.insertedLoads             0                       # Number of loads inserted to the mem dependence unit. (Count)
system.cpu0.MemDepUnit__1.insertedStores            0                       # Number of stores inserted to the mem dependence unit. (Count)
system.cpu0.MemDepUnit__1.conflictingLoads            0                       # Number of conflicting loads. (Count)
system.cpu0.MemDepUnit__1.conflictingStores            0                       # Number of conflicting stores. (Count)
system.cpu0.MemDepUnit__2.insertedLoads             0                       # Number of loads inserted to the mem dependence unit. (Count)
system.cpu0.MemDepUnit__2.insertedStores            0                       # Number of stores inserted to the mem dependence unit. (Count)
system.cpu0.MemDepUnit__2.conflictingLoads            0                       # Number of conflicting loads. (Count)
system.cpu0.MemDepUnit__2.conflictingStores            0                       # Number of conflicting stores. (Count)
system.cpu0.MemDepUnit__3.insertedLoads             0                       # Number of loads inserted to the mem dependence unit. (Count)
system.cpu0.MemDepUnit__3.insertedStores            0                       # Number of stores inserted to the mem dependence unit. (Count)
system.cpu0.MemDepUnit__3.conflictingLoads            0                       # Number of conflicting loads. (Count)
system.cpu0.MemDepUnit__3.conflictingStores            0                       # Number of conflicting stores. (Count)
system.cpu0.branchPred.lookups_0::NoBranch           24      0.00%      0.00% # Number of BP lookups (Count)
system.cpu0.branchPred.lookups_0::Return       410788     24.34%     24.35% # Number of BP lookups (Count)
system.cpu0.branchPred.lookups_0::CallDirect       411380     24.38%     48.73% # Number of BP lookups (Count)
system.cpu0.branchPred.lookups_0::CallIndirect         1030      0.06%     48.79% # Number of BP lookups (Count)
system.cpu0.branchPred.lookups_0::DirectCond       832213     49.32%     98.11% # Number of BP lookups (Count)
system.cpu0.branchPred.lookups_0::DirectUncond        23326      1.38%     99.49% # Number of BP lookups (Count)
system.cpu0.branchPred.lookups_0::IndirectCond            0      0.00%     99.49% # Number of BP lookups (Count)
system.cpu0.branchPred.lookups_0::IndirectUncond         8619      0.51%    100.00% # Number of BP lookups (Count)
system.cpu0.branchPred.lookups_0::total       1687380                       # Number of BP lookups (Count)
system.cpu0.branchPred.squashes_0::NoBranch           24      0.02%      0.02% # Number of branches that got squashed (completely removed) as an earlier branch was mispredicted. (Count)
system.cpu0.branchPred.squashes_0::Return         3887      2.86%      2.87% # Number of branches that got squashed (completely removed) as an earlier branch was mispredicted. (Count)
system.cpu0.branchPred.squashes_0::CallDirect         5404      3.97%      6.85% # Number of branches that got squashed (completely removed) as an earlier branch was mispredicted. (Count)
system.cpu0.branchPred.squashes_0::CallIndirect          100      0.07%      6.92% # Number of branches that got squashed (completely removed) as an earlier branch was mispredicted. (Count)
system.cpu0.branchPred.squashes_0::DirectCond       116862     85.89%     92.81% # Number of branches that got squashed (completely removed) as an earlier branch was mispredicted. (Count)
system.cpu0.branchPred.squashes_0::DirectUncond         7177      5.27%     98.09% # Number of branches that got squashed (completely removed) as an earlier branch was mispredicted. (Count)
system.cpu0.branchPred.squashes_0::IndirectCond            0      0.00%     98.09% # Number of branches that got squashed (completely removed) as an earlier branch was mispredicted. (Count)
system.cpu0.branchPred.squashes_0::IndirectUncond         2603      1.91%    100.00% # Number of branches that got squashed (completely removed) as an earlier branch was mispredicted. (Count)
system.cpu0.branchPred.squashes_0::total       136057                       # Number of branches that got squashed (completely removed) as an earlier branch was mispredicted. (Count)
system.cpu0.branchPred.corrected_0::NoBranch            1      0.01%      0.01% # Number of branches that got corrected but not yet commited. Branches get corrected by decode or after execute. Also a branch misprediction can be detected out-of-order. Therefore, a corrected branch might not end up beeing committed in case an even earlier branch was mispredicted (Count)
system.cpu0.branchPred.corrected_0::Return           12      0.11%      0.12% # Number of branches that got corrected but not yet commited. Branches get corrected by decode or after execute. Also a branch misprediction can be detected out-of-order. Therefore, a corrected branch might not end up beeing committed in case an even earlier branch was mispredicted (Count)
system.cpu0.branchPred.corrected_0::CallDirect          861      8.06%      8.18% # Number of branches that got corrected but not yet commited. Branches get corrected by decode or after execute. Also a branch misprediction can be detected out-of-order. Therefore, a corrected branch might not end up beeing committed in case an even earlier branch was mispredicted (Count)
system.cpu0.branchPred.corrected_0::CallIndirect           41      0.38%      8.57% # Number of branches that got corrected but not yet commited. Branches get corrected by decode or after execute. Also a branch misprediction can be detected out-of-order. Therefore, a corrected branch might not end up beeing committed in case an even earlier branch was mispredicted (Count)
system.cpu0.branchPred.corrected_0::DirectCond         9322     87.29%     95.86% # Number of branches that got corrected but not yet commited. Branches get corrected by decode or after execute. Also a branch misprediction can be detected out-of-order. Therefore, a corrected branch might not end up beeing committed in case an even earlier branch was mispredicted (Count)
system.cpu0.branchPred.corrected_0::DirectUncond          369      3.46%     99.32% # Number of branches that got corrected but not yet commited. Branches get corrected by decode or after execute. Also a branch misprediction can be detected out-of-order. Therefore, a corrected branch might not end up beeing committed in case an even earlier branch was mispredicted (Count)
system.cpu0.branchPred.corrected_0::IndirectCond            0      0.00%     99.32% # Number of branches that got corrected but not yet commited. Branches get corrected by decode or after execute. Also a branch misprediction can be detected out-of-order. Therefore, a corrected branch might not end up beeing committed in case an even earlier branch was mispredicted (Count)
system.cpu0.branchPred.corrected_0::IndirectUncond           73      0.68%    100.00% # Number of branches that got corrected but not yet commited. Branches get corrected by decode or after execute. Also a branch misprediction can be detected out-of-order. Therefore, a corrected branch might not end up beeing committed in case an even earlier branch was mispredicted (Count)
system.cpu0.branchPred.corrected_0::total        10679                       # Number of branches that got corrected but not yet commited. Branches get corrected by decode or after execute. Also a branch misprediction can be detected out-of-order. Therefore, a corrected branch might not end up beeing committed in case an even earlier branch was mispredicted (Count)
system.cpu0.branchPred.earlyResteers_0::NoBranch            0                       # Number of branches that got redirected after decode. (Count)
system.cpu0.branchPred.earlyResteers_0::Return            0                       # Number of branches that got redirected after decode. (Count)
system.cpu0.branchPred.earlyResteers_0::CallDirect            0                       # Number of branches that got redirected after decode. (Count)
system.cpu0.branchPred.earlyResteers_0::CallIndirect            0                       # Number of branches that got redirected after decode. (Count)
system.cpu0.branchPred.earlyResteers_0::DirectCond            0                       # Number of branches that got redirected after decode. (Count)
system.cpu0.branchPred.earlyResteers_0::DirectUncond            0                       # Number of branches that got redirected after decode. (Count)
system.cpu0.branchPred.earlyResteers_0::IndirectCond            0                       # Number of branches that got redirected after decode. (Count)
system.cpu0.branchPred.earlyResteers_0::IndirectUncond            0                       # Number of branches that got redirected after decode. (Count)
system.cpu0.branchPred.earlyResteers_0::total            0                       # Number of branches that got redirected after decode. (Count)
system.cpu0.branchPred.committed_0::NoBranch            0      0.00%      0.00% # Number of branches finally committed  (Count)
system.cpu0.branchPred.committed_0::Return       406901     26.23%     26.23% # Number of branches finally committed  (Count)
system.cpu0.branchPred.committed_0::CallDirect       405976     26.17%     52.40% # Number of branches finally committed  (Count)
system.cpu0.branchPred.committed_0::CallIndirect          930      0.06%     52.46% # Number of branches finally committed  (Count)
system.cpu0.branchPred.committed_0::DirectCond       715350     46.11%     98.57% # Number of branches finally committed  (Count)
system.cpu0.branchPred.committed_0::DirectUncond        16149      1.04%     99.61% # Number of branches finally committed  (Count)
system.cpu0.branchPred.committed_0::IndirectCond            0      0.00%     99.61% # Number of branches finally committed  (Count)
system.cpu0.branchPred.committed_0::IndirectUncond         6016      0.39%    100.00% # Number of branches finally committed  (Count)
system.cpu0.branchPred.committed_0::total      1551322                       # Number of branches finally committed  (Count)
system.cpu0.branchPred.mispredicted_0::NoBranch            0      0.00%      0.00% # Number of committed branches that were mispredicted. (Count)
system.cpu0.branchPred.mispredicted_0::Return            0      0.00%      0.00% # Number of committed branches that were mispredicted. (Count)
system.cpu0.branchPred.mispredicted_0::CallDirect          622      6.14%      6.14% # Number of committed branches that were mispredicted. (Count)
system.cpu0.branchPred.mispredicted_0::CallIndirect           40      0.40%      6.54% # Number of committed branches that were mispredicted. (Count)
system.cpu0.branchPred.mispredicted_0::DirectCond         9178     90.65%     97.19% # Number of committed branches that were mispredicted. (Count)
system.cpu0.branchPred.mispredicted_0::DirectUncond          215      2.12%     99.31% # Number of committed branches that were mispredicted. (Count)
system.cpu0.branchPred.mispredicted_0::IndirectCond            0      0.00%     99.31% # Number of committed branches that were mispredicted. (Count)
system.cpu0.branchPred.mispredicted_0::IndirectUncond           70      0.69%    100.00% # Number of committed branches that were mispredicted. (Count)
system.cpu0.branchPred.mispredicted_0::total        10125                       # Number of committed branches that were mispredicted. (Count)
system.cpu0.branchPred.targetProvider_0::NoTarget       543446     32.21%     32.21% # The component providing the target for taken branches (Count)
system.cpu0.branchPred.targetProvider_0::BTB       725841     43.02%     75.22% # The component providing the target for taken branches (Count)
system.cpu0.branchPred.targetProvider_0::RAS       410788     24.34%     99.57% # The component providing the target for taken branches (Count)
system.cpu0.branchPred.targetProvider_0::Indirect         7305      0.43%    100.00% # The component providing the target for taken branches (Count)
system.cpu0.branchPred.targetProvider_0::total      1687380                       # The component providing the target for taken branches (Count)
system.cpu0.branchPred.targetWrong_0::NoBranch         3054     28.62%     28.62% # Number of branches where the target was incorrect or not available at prediction time. (Count)
system.cpu0.branchPred.targetWrong_0::Return         7576     71.00%     99.63% # Number of branches where the target was incorrect or not available at prediction time. (Count)
system.cpu0.branchPred.targetWrong_0::CallDirect           12      0.11%     99.74% # Number of branches where the target was incorrect or not available at prediction time. (Count)
system.cpu0.branchPred.targetWrong_0::CallIndirect           28      0.26%    100.00% # Number of branches where the target was incorrect or not available at prediction time. (Count)
system.cpu0.branchPred.targetWrong_0::DirectCond            0      0.00%    100.00% # Number of branches where the target was incorrect or not available at prediction time. (Count)
system.cpu0.branchPred.targetWrong_0::DirectUncond            0      0.00%    100.00% # Number of branches where the target was incorrect or not available at prediction time. (Count)
system.cpu0.branchPred.targetWrong_0::IndirectCond            0      0.00%    100.00% # Number of branches where the target was incorrect or not available at prediction time. (Count)
system.cpu0.branchPred.targetWrong_0::IndirectUncond            0      0.00%    100.00% # Number of branches where the target was incorrect or not available at prediction time. (Count)
system.cpu0.branchPred.targetWrong_0::total        10670                       # Number of branches where the target was incorrect or not available at prediction time. (Count)
system.cpu0.branchPred.condPredicted           832237                       # Number of conditional branches predicted (Count)
system.cpu0.branchPred.condPredictedTaken       293408                       # Number of conditional branches predicted as taken (Count)
system.cpu0.branchPred.condIncorrect            10679                       # Number of conditional branches incorrect (Count)
system.cpu0.branchPred.predTakenBTBMiss          1643                       # Number of branches predicted taken but missed in BTB (Count)
system.cpu0.branchPred.NotTakenMispredicted         3173                       # Number branches predicted 'not taken' but turned out to be taken (Count)
system.cpu0.branchPred.TakenMispredicted         7506                       # Number branches predicted taken but are actually not taken (Count)
system.cpu0.branchPred.BTBLookups             1687380                       # Number of BTB lookups (Count)
system.cpu0.branchPred.BTBUpdates                3046                       # Number of BTB updates (Count)
system.cpu0.branchPred.BTBHits                 771819                       # Number of BTB hits (Count)
system.cpu0.branchPred.BTBHitRatio           0.457407                       # BTB Hit Ratio (Ratio)
system.cpu0.branchPred.BTBMispredicted           2193                       # Number BTB mispredictions. No target found or target wrong (Count)
system.cpu0.branchPred.indirectLookups           9649                       # Number of indirect predictor lookups. (Count)
system.cpu0.branchPred.indirectHits              7305                       # Number of indirect target hits. (Count)
system.cpu0.branchPred.indirectMisses            2344                       # Number of indirect misses. (Count)
system.cpu0.branchPred.indirectMispredicted            0                       # Number of mispredicted indirect branches. (Count)
system.cpu0.branchPred.btb.lookups::NoBranch           24      0.00%      0.00% # Number of BTB lookups (Count)
system.cpu0.branchPred.btb.lookups::Return       410788     24.34%     24.35% # Number of BTB lookups (Count)
system.cpu0.branchPred.btb.lookups::CallDirect       411380     24.38%     48.73% # Number of BTB lookups (Count)
system.cpu0.branchPred.btb.lookups::CallIndirect         1030      0.06%     48.79% # Number of BTB lookups (Count)
system.cpu0.branchPred.btb.lookups::DirectCond       832213     49.32%     98.11% # Number of BTB lookups (Count)
system.cpu0.branchPred.btb.lookups::DirectUncond        23326      1.38%     99.49% # Number of BTB lookups (Count)
system.cpu0.branchPred.btb.lookups::IndirectCond            0      0.00%     99.49% # Number of BTB lookups (Count)
system.cpu0.branchPred.btb.lookups::IndirectUncond         8619      0.51%    100.00% # Number of BTB lookups (Count)
system.cpu0.branchPred.btb.lookups::total      1687380                       # Number of BTB lookups (Count)
system.cpu0.branchPred.btb.misses::NoBranch           24      0.00%      0.00% # Number of BTB misses (Count)
system.cpu0.branchPred.btb.misses::Return       410766     44.86%     44.87% # Number of BTB misses (Count)
system.cpu0.branchPred.btb.misses::CallDirect          997      0.11%     44.98% # Number of BTB misses (Count)
system.cpu0.branchPred.btb.misses::CallIndirect         1030      0.11%     45.09% # Number of BTB misses (Count)
system.cpu0.branchPred.btb.misses::DirectCond       493638     53.92%     99.01% # Number of BTB misses (Count)
system.cpu0.branchPred.btb.misses::DirectUncond          487      0.05%     99.06% # Number of BTB misses (Count)
system.cpu0.branchPred.btb.misses::IndirectCond            0      0.00%     99.06% # Number of BTB misses (Count)
system.cpu0.branchPred.btb.misses::IndirectUncond         8619      0.94%    100.00% # Number of BTB misses (Count)
system.cpu0.branchPred.btb.misses::total       915561                       # Number of BTB misses (Count)
system.cpu0.branchPred.btb.updates::NoBranch            0      0.00%      0.00% # Number of BTB updates (Count)
system.cpu0.branchPred.btb.updates::Return            0      0.00%      0.00% # Number of BTB updates (Count)
system.cpu0.branchPred.btb.updates::CallDirect          861     28.27%     28.27% # Number of BTB updates (Count)
system.cpu0.branchPred.btb.updates::CallIndirect            0      0.00%     28.27% # Number of BTB updates (Count)
system.cpu0.branchPred.btb.updates::DirectCond         1816     59.62%     87.89% # Number of BTB updates (Count)
system.cpu0.branchPred.btb.updates::DirectUncond          369     12.11%    100.00% # Number of BTB updates (Count)
system.cpu0.branchPred.btb.updates::IndirectCond            0      0.00%    100.00% # Number of BTB updates (Count)
system.cpu0.branchPred.btb.updates::IndirectUncond            0      0.00%    100.00% # Number of BTB updates (Count)
system.cpu0.branchPred.btb.updates::total         3046                       # Number of BTB updates (Count)
system.cpu0.branchPred.btb.mispredict::NoBranch            0      0.00%      0.00% # Number of BTB mispredictions. No target found or target wrong. (Count)
system.cpu0.branchPred.btb.mispredict::Return            0      0.00%      0.00% # Number of BTB mispredictions. No target found or target wrong. (Count)
system.cpu0.branchPred.btb.mispredict::CallDirect          861     28.27%     28.27% # Number of BTB mispredictions. No target found or target wrong. (Count)
system.cpu0.branchPred.btb.mispredict::CallIndirect            0      0.00%     28.27% # Number of BTB mispredictions. No target found or target wrong. (Count)
system.cpu0.branchPred.btb.mispredict::DirectCond         1816     59.62%     87.89% # Number of BTB mispredictions. No target found or target wrong. (Count)
system.cpu0.branchPred.btb.mispredict::DirectUncond          369     12.11%    100.00% # Number of BTB mispredictions. No target found or target wrong. (Count)
system.cpu0.branchPred.btb.mispredict::IndirectCond            0      0.00%    100.00% # Number of BTB mispredictions. No target found or target wrong. (Count)
system.cpu0.branchPred.btb.mispredict::IndirectUncond            0      0.00%    100.00% # Number of BTB mispredictions. No target found or target wrong. (Count)
system.cpu0.branchPred.btb.mispredict::total         3046                       # Number of BTB mispredictions. No target found or target wrong. (Count)
system.cpu0.branchPred.btb.power_state.pwrStateResidencyTicks::UNDEFINED 274874403888                       # Cumulative time (in ticks) in various power states (Tick)
system.cpu0.branchPred.indirectBranchPred.lookups         9649                       # Number of lookups (Count)
system.cpu0.branchPred.indirectBranchPred.hits         7305                       # Number of hits of a tag (Count)
system.cpu0.branchPred.indirectBranchPred.misses         2344                       # Number of misses (Count)
system.cpu0.branchPred.indirectBranchPred.targetRecords          114                       # Number of targets that where recorded/installed in the cache (Count)
system.cpu0.branchPred.indirectBranchPred.indirectRecords         9763                       # Number of indirect branches/calls recorded in the indirect hist (Count)
system.cpu0.branchPred.indirectBranchPred.speculativeOverflows            1                       # Number of times more than the allowed capacity for speculative branches/calls where in flight and destroy the path history (Count)
system.cpu0.branchPred.loop_predictor.used            0                       # Number of times the loop predictor is the provider. (Count)
system.cpu0.branchPred.loop_predictor.correct            0                       # Number of times the loop predictor is the provider and the prediction is correct (Count)
system.cpu0.branchPred.loop_predictor.wrong            0                       # Number of times the loop predictor is the provider and the prediction is wrong (Count)
system.cpu0.branchPred.ras.pushes              416297                       # Number of times a PC was pushed onto the RAS (Count)
system.cpu0.branchPred.ras.pops                416292                       # Number of times a PC was poped from the RAS (Count)
system.cpu0.branchPred.ras.squashes              9391                       # Number of times the stack operation was squashed due to wrong speculation. (Count)
system.cpu0.branchPred.ras.used                406901                       # Number of times the RAS is the provider (Count)
system.cpu0.branchPred.ras.correct             406901                       # Number of times the RAS is the provider and the prediction is correct (Count)
system.cpu0.branchPred.ras.incorrect                0                       # Number of times the RAS is the provider and the prediction is wrong (Count)
system.cpu0.branchPred.statistical_corrector.correct       499393                       # Number of time the SC predictor is the provider and the prediction is correct (Count)
system.cpu0.branchPred.statistical_corrector.wrong       215957                       # Number of time the SC predictor is the provider and the prediction is wrong (Count)
system.cpu0.branchPred.tage.longestMatchProviderCorrect       189135                       # Number of times TAGE Longest Match is the provider and the prediction is correct (Count)
system.cpu0.branchPred.tage.altMatchProviderCorrect         4889                       # Number of times TAGE Alt Match is the provider and the prediction is correct (Count)
system.cpu0.branchPred.tage.bimodalAltMatchProviderCorrect          174                       # Number of times TAGE Alt Match is the bimodal and it is the provider and the prediction is correct (Count)
system.cpu0.branchPred.tage.bimodalProviderCorrect       511728                       # Number of times there are no hits on the TAGE tables and the bimodal prediction is correct (Count)
system.cpu0.branchPred.tage.longestMatchProviderWrong         2053                       # Number of times TAGE Longest Match is the provider and the prediction is wrong (Count)
system.cpu0.branchPred.tage.altMatchProviderWrong         3131                       # Number of times TAGE Alt Match is the provider and the prediction is wrong (Count)
system.cpu0.branchPred.tage.bimodalAltMatchProviderWrong           26                       # Number of times TAGE Alt Match is the bimodal and it is the provider and the prediction is wrong (Count)
system.cpu0.branchPred.tage.bimodalProviderWrong          990                       # Number of times there are no hits on the TAGE tables and the bimodal prediction is wrong (Count)
system.cpu0.branchPred.tage.altMatchProviderWouldHaveHit          266                       # Number of times TAGE Longest Match is the provider, the prediction is wrong and Alt Match prediction was correct (Count)
system.cpu0.branchPred.tage.longestMatchProviderWouldHaveHit         2541                       # Number of times TAGE Alt Match is the provider, the prediction is wrong and Longest Match prediction was correct (Count)
system.cpu0.branchPred.tage.longestMatchProvider::0            0                       # TAGE provider for longest match (Count)
system.cpu0.branchPred.tage.longestMatchProvider::1            0                       # TAGE provider for longest match (Count)
system.cpu0.branchPred.tage.longestMatchProvider::2         6366                       # TAGE provider for longest match (Count)
system.cpu0.branchPred.tage.longestMatchProvider::3            0                       # TAGE provider for longest match (Count)
system.cpu0.branchPred.tage.longestMatchProvider::4            0                       # TAGE provider for longest match (Count)
system.cpu0.branchPred.tage.longestMatchProvider::5            0                       # TAGE provider for longest match (Count)
system.cpu0.branchPred.tage.longestMatchProvider::6        11922                       # TAGE provider for longest match (Count)
system.cpu0.branchPred.tage.longestMatchProvider::7            0                       # TAGE provider for longest match (Count)
system.cpu0.branchPred.tage.longestMatchProvider::8            0                       # TAGE provider for longest match (Count)
system.cpu0.branchPred.tage.longestMatchProvider::9         6755                       # TAGE provider for longest match (Count)
system.cpu0.branchPred.tage.longestMatchProvider::10         1967                       # TAGE provider for longest match (Count)
system.cpu0.branchPred.tage.longestMatchProvider::11          221                       # TAGE provider for longest match (Count)
system.cpu0.branchPred.tage.longestMatchProvider::12         4368                       # TAGE provider for longest match (Count)
system.cpu0.branchPred.tage.longestMatchProvider::13         5193                       # TAGE provider for longest match (Count)
system.cpu0.branchPred.tage.longestMatchProvider::14        16617                       # TAGE provider for longest match (Count)
system.cpu0.branchPred.tage.longestMatchProvider::15         1525                       # TAGE provider for longest match (Count)
system.cpu0.branchPred.tage.longestMatchProvider::16         6088                       # TAGE provider for longest match (Count)
system.cpu0.branchPred.tage.longestMatchProvider::17         3215                       # TAGE provider for longest match (Count)
system.cpu0.branchPred.tage.longestMatchProvider::18         5766                       # TAGE provider for longest match (Count)
system.cpu0.branchPred.tage.longestMatchProvider::19         2883                       # TAGE provider for longest match (Count)
system.cpu0.branchPred.tage.longestMatchProvider::20        33251                       # TAGE provider for longest match (Count)
system.cpu0.branchPred.tage.longestMatchProvider::21         2272                       # TAGE provider for longest match (Count)
system.cpu0.branchPred.tage.longestMatchProvider::22         4900                       # TAGE provider for longest match (Count)
system.cpu0.branchPred.tage.longestMatchProvider::23            0                       # TAGE provider for longest match (Count)
system.cpu0.branchPred.tage.longestMatchProvider::24        30287                       # TAGE provider for longest match (Count)
system.cpu0.branchPred.tage.longestMatchProvider::25            0                       # TAGE provider for longest match (Count)
system.cpu0.branchPred.tage.longestMatchProvider::26        41681                       # TAGE provider for longest match (Count)
system.cpu0.branchPred.tage.longestMatchProvider::27            0                       # TAGE provider for longest match (Count)
system.cpu0.branchPred.tage.longestMatchProvider::28         6370                       # TAGE provider for longest match (Count)
system.cpu0.branchPred.tage.longestMatchProvider::29            0                       # TAGE provider for longest match (Count)
system.cpu0.branchPred.tage.longestMatchProvider::30            0                       # TAGE provider for longest match (Count)
system.cpu0.branchPred.tage.longestMatchProvider::31            0                       # TAGE provider for longest match (Count)
system.cpu0.branchPred.tage.longestMatchProvider::32         6580                       # TAGE provider for longest match (Count)
system.cpu0.branchPred.tage.longestMatchProvider::33            0                       # TAGE provider for longest match (Count)
system.cpu0.branchPred.tage.longestMatchProvider::34            0                       # TAGE provider for longest match (Count)
system.cpu0.branchPred.tage.longestMatchProvider::35            0                       # TAGE provider for longest match (Count)
system.cpu0.branchPred.tage.longestMatchProvider::36          981                       # TAGE provider for longest match (Count)
system.cpu0.branchPred.tage.altMatchProvider::0         9230                       # TAGE provider for alt match (Count)
system.cpu0.branchPred.tage.altMatchProvider::1            0                       # TAGE provider for alt match (Count)
system.cpu0.branchPred.tage.altMatchProvider::2         9861                       # TAGE provider for alt match (Count)
system.cpu0.branchPred.tage.altMatchProvider::3            0                       # TAGE provider for alt match (Count)
system.cpu0.branchPred.tage.altMatchProvider::4            0                       # TAGE provider for alt match (Count)
system.cpu0.branchPred.tage.altMatchProvider::5            0                       # TAGE provider for alt match (Count)
system.cpu0.branchPred.tage.altMatchProvider::6         8536                       # TAGE provider for alt match (Count)
system.cpu0.branchPred.tage.altMatchProvider::7            0                       # TAGE provider for alt match (Count)
system.cpu0.branchPred.tage.altMatchProvider::8            0                       # TAGE provider for alt match (Count)
system.cpu0.branchPred.tage.altMatchProvider::9        17359                       # TAGE provider for alt match (Count)
system.cpu0.branchPred.tage.altMatchProvider::10         5294                       # TAGE provider for alt match (Count)
system.cpu0.branchPred.tage.altMatchProvider::11         3102                       # TAGE provider for alt match (Count)
system.cpu0.branchPred.tage.altMatchProvider::12         4677                       # TAGE provider for alt match (Count)
system.cpu0.branchPred.tage.altMatchProvider::13         2354                       # TAGE provider for alt match (Count)
system.cpu0.branchPred.tage.altMatchProvider::14         6282                       # TAGE provider for alt match (Count)
system.cpu0.branchPred.tage.altMatchProvider::15         1574                       # TAGE provider for alt match (Count)
system.cpu0.branchPred.tage.altMatchProvider::16         4599                       # TAGE provider for alt match (Count)
system.cpu0.branchPred.tage.altMatchProvider::17         3010                       # TAGE provider for alt match (Count)
system.cpu0.branchPred.tage.altMatchProvider::18        31112                       # TAGE provider for alt match (Count)
system.cpu0.branchPred.tage.altMatchProvider::19         6832                       # TAGE provider for alt match (Count)
system.cpu0.branchPred.tage.altMatchProvider::20        28680                       # TAGE provider for alt match (Count)
system.cpu0.branchPred.tage.altMatchProvider::21          557                       # TAGE provider for alt match (Count)
system.cpu0.branchPred.tage.altMatchProvider::22         1342                       # TAGE provider for alt match (Count)
system.cpu0.branchPred.tage.altMatchProvider::23            0                       # TAGE provider for alt match (Count)
system.cpu0.branchPred.tage.altMatchProvider::24        45506                       # TAGE provider for alt match (Count)
system.cpu0.branchPred.tage.altMatchProvider::25            0                       # TAGE provider for alt match (Count)
system.cpu0.branchPred.tage.altMatchProvider::26         5996                       # TAGE provider for alt match (Count)
system.cpu0.branchPred.tage.altMatchProvider::27            0                       # TAGE provider for alt match (Count)
system.cpu0.branchPred.tage.altMatchProvider::28         2330                       # TAGE provider for alt match (Count)
system.cpu0.branchPred.tage.altMatchProvider::29            0                       # TAGE provider for alt match (Count)
system.cpu0.branchPred.tage.altMatchProvider::30            0                       # TAGE provider for alt match (Count)
system.cpu0.branchPred.tage.altMatchProvider::31            0                       # TAGE provider for alt match (Count)
system.cpu0.branchPred.tage.altMatchProvider::32          975                       # TAGE provider for alt match (Count)
system.cpu0.branchPred.tage.altMatchProvider::33            0                       # TAGE provider for alt match (Count)
system.cpu0.branchPred.tage.altMatchProvider::34            0                       # TAGE provider for alt match (Count)
system.cpu0.branchPred.tage.altMatchProvider::35            0                       # TAGE provider for alt match (Count)
system.cpu0.branchPred.tage.altMatchProvider::36            0                       # TAGE provider for alt match (Count)
system.cpu0.clk_domain.clock                      294                       # Clock period in ticks (Tick)
system.cpu0.commit.commitSquashedInsts        2198818                       # The number of squashed insts skipped by commit (Count)
system.cpu0.commit.commitNonSpecStalls           3330                       # The number of times commit has been forced to stall to communicate backwards (Count)
system.cpu0.commit.branchMispredicts             9484                       # The number of times a branch was mispredicted (Count)
system.cpu0.commit.numCommittedDist::samples      7920418                       # Number of insts commited each cycle (Count)
system.cpu0.commit.numCommittedDist::mean     2.502621                       # Number of insts commited each cycle (Count)
system.cpu0.commit.numCommittedDist::stdev     3.023218                       # Number of insts commited each cycle (Count)
system.cpu0.commit.numCommittedDist::underflows            0      0.00%      0.00% # Number of insts commited each cycle (Count)
system.cpu0.commit.numCommittedDist::0        2724906     34.40%     34.40% # Number of insts commited each cycle (Count)
system.cpu0.commit.numCommittedDist::1        1807739     22.82%     57.23% # Number of insts commited each cycle (Count)
system.cpu0.commit.numCommittedDist::2        1019023     12.87%     70.09% # Number of insts commited each cycle (Count)
system.cpu0.commit.numCommittedDist::3         377816      4.77%     74.86% # Number of insts commited each cycle (Count)
system.cpu0.commit.numCommittedDist::4          27829      0.35%     75.21% # Number of insts commited each cycle (Count)
system.cpu0.commit.numCommittedDist::5         154759      1.95%     77.17% # Number of insts commited each cycle (Count)
system.cpu0.commit.numCommittedDist::6         152470      1.93%     79.09% # Number of insts commited each cycle (Count)
system.cpu0.commit.numCommittedDist::7         204371      2.58%     81.67% # Number of insts commited each cycle (Count)
system.cpu0.commit.numCommittedDist::8        1451505     18.33%    100.00% # Number of insts commited each cycle (Count)
system.cpu0.commit.numCommittedDist::overflows            0      0.00%    100.00% # Number of insts commited each cycle (Count)
system.cpu0.commit.numCommittedDist::min_value            0                       # Number of insts commited each cycle (Count)
system.cpu0.commit.numCommittedDist::max_value            8                       # Number of insts commited each cycle (Count)
system.cpu0.commit.numCommittedDist::total      7920418                       # Number of insts commited each cycle (Count)
system.cpu0.commit.amos                             0                       # Number of atomic instructions committed (Count)
system.cpu0.commit.membars                       2220                       # Number of memory barriers committed (Count)
system.cpu0.commit.functionCalls               406906                       # Number of function calls committed. (Count)
system.cpu0.commit.committedInstType_0::No_OpClass       405542      2.05%      2.05% # Class of committed instruction (Count)
system.cpu0.commit.committedInstType_0::IntAlu     12782962     64.49%     66.54% # Class of committed instruction (Count)
system.cpu0.commit.committedInstType_0::IntMult       161836      0.82%     67.35% # Class of committed instruction (Count)
system.cpu0.commit.committedInstType_0::IntDiv           84      0.00%     67.35% # Class of committed instruction (Count)
system.cpu0.commit.committedInstType_0::FloatAdd       356503      1.80%     69.15% # Class of committed instruction (Count)
system.cpu0.commit.committedInstType_0::FloatCmp            0      0.00%     69.15% # Class of committed instruction (Count)
system.cpu0.commit.committedInstType_0::FloatCvt            0      0.00%     69.15% # Class of committed instruction (Count)
system.cpu0.commit.committedInstType_0::FloatMult            0      0.00%     69.15% # Class of committed instruction (Count)
system.cpu0.commit.committedInstType_0::FloatMultAcc            0      0.00%     69.15% # Class of committed instruction (Count)
system.cpu0.commit.committedInstType_0::FloatDiv            0      0.00%     69.15% # Class of committed instruction (Count)
system.cpu0.commit.committedInstType_0::FloatMisc            0      0.00%     69.15% # Class of committed instruction (Count)
system.cpu0.commit.committedInstType_0::FloatSqrt            0      0.00%     69.15% # Class of committed instruction (Count)
system.cpu0.commit.committedInstType_0::SimdAdd           10      0.00%     69.15% # Class of committed instruction (Count)
system.cpu0.commit.committedInstType_0::SimdAddAcc            0      0.00%     69.15% # Class of committed instruction (Count)
system.cpu0.commit.committedInstType_0::SimdAlu       277491      1.40%     70.55% # Class of committed instruction (Count)
system.cpu0.commit.committedInstType_0::SimdCmp            0      0.00%     70.55% # Class of committed instruction (Count)
system.cpu0.commit.committedInstType_0::SimdCvt           10      0.00%     70.55% # Class of committed instruction (Count)
system.cpu0.commit.committedInstType_0::SimdMisc       147746      0.75%     71.30% # Class of committed instruction (Count)
system.cpu0.commit.committedInstType_0::SimdMult            0      0.00%     71.30% # Class of committed instruction (Count)
system.cpu0.commit.committedInstType_0::SimdMultAcc            0      0.00%     71.30% # Class of committed instruction (Count)
system.cpu0.commit.committedInstType_0::SimdMatMultAcc            0      0.00%     71.30% # Class of committed instruction (Count)
system.cpu0.commit.committedInstType_0::SimdShift            3      0.00%     71.30% # Class of committed instruction (Count)
system.cpu0.commit.committedInstType_0::SimdShiftAcc            0      0.00%     71.30% # Class of committed instruction (Count)
system.cpu0.commit.committedInstType_0::SimdDiv            0      0.00%     71.30% # Class of committed instruction (Count)
system.cpu0.commit.committedInstType_0::SimdSqrt            0      0.00%     71.30% # Class of committed instruction (Count)
system.cpu0.commit.committedInstType_0::SimdFloatAdd        79293      0.40%     71.70% # Class of committed instruction (Count)
system.cpu0.commit.committedInstType_0::SimdFloatAlu            0      0.00%     71.70% # Class of committed instruction (Count)
system.cpu0.commit.committedInstType_0::SimdFloatCmp            0      0.00%     71.70% # Class of committed instruction (Count)
system.cpu0.commit.committedInstType_0::SimdFloatCvt       398183      2.01%     73.71% # Class of committed instruction (Count)
system.cpu0.commit.committedInstType_0::SimdFloatDiv         4083      0.02%     73.73% # Class of committed instruction (Count)
system.cpu0.commit.committedInstType_0::SimdFloatMisc            0      0.00%     73.73% # Class of committed instruction (Count)
system.cpu0.commit.committedInstType_0::SimdFloatMult       327056      1.65%     75.38% # Class of committed instruction (Count)
system.cpu0.commit.committedInstType_0::SimdFloatMultAcc            0      0.00%     75.38% # Class of committed instruction (Count)
system.cpu0.commit.committedInstType_0::SimdFloatMatMultAcc            0      0.00%     75.38% # Class of committed instruction (Count)
system.cpu0.commit.committedInstType_0::SimdFloatSqrt            0      0.00%     75.38% # Class of committed instruction (Count)
system.cpu0.commit.committedInstType_0::SimdReduceAdd            0      0.00%     75.38% # Class of committed instruction (Count)
system.cpu0.commit.committedInstType_0::SimdReduceAlu            0      0.00%     75.38% # Class of committed instruction (Count)
system.cpu0.commit.committedInstType_0::SimdReduceCmp            0      0.00%     75.38% # Class of committed instruction (Count)
system.cpu0.commit.committedInstType_0::SimdFloatReduceAdd            0      0.00%     75.38% # Class of committed instruction (Count)
system.cpu0.commit.committedInstType_0::SimdFloatReduceCmp            0      0.00%     75.38% # Class of committed instruction (Count)
system.cpu0.commit.committedInstType_0::SimdAes            0      0.00%     75.38% # Class of committed instruction (Count)
system.cpu0.commit.committedInstType_0::SimdAesMix            0      0.00%     75.38% # Class of committed instruction (Count)
system.cpu0.commit.committedInstType_0::SimdSha1Hash            0      0.00%     75.38% # Class of committed instruction (Count)
system.cpu0.commit.committedInstType_0::SimdSha1Hash2            0      0.00%     75.38% # Class of committed instruction (Count)
system.cpu0.commit.committedInstType_0::SimdSha256Hash            0      0.00%     75.38% # Class of committed instruction (Count)
system.cpu0.commit.committedInstType_0::SimdSha256Hash2            0      0.00%     75.38% # Class of committed instruction (Count)
system.cpu0.commit.committedInstType_0::SimdShaSigma2            0      0.00%     75.38% # Class of committed instruction (Count)
system.cpu0.commit.committedInstType_0::SimdShaSigma3            0      0.00%     75.38% # Class of committed instruction (Count)
system.cpu0.commit.committedInstType_0::SimdPredAlu            0      0.00%     75.38% # Class of committed instruction (Count)
system.cpu0.commit.committedInstType_0::Matrix            0      0.00%     75.38% # Class of committed instruction (Count)
system.cpu0.commit.committedInstType_0::MatrixMov            0      0.00%     75.38% # Class of committed instruction (Count)
system.cpu0.commit.committedInstType_0::MatrixOP            0      0.00%     75.38% # Class of committed instruction (Count)
system.cpu0.commit.committedInstType_0::MemRead      2685746     13.55%     88.93% # Class of committed instruction (Count)
system.cpu0.commit.committedInstType_0::MemWrite      1582652      7.98%     96.91% # Class of committed instruction (Count)
system.cpu0.commit.committedInstType_0::FloatMemRead       299948      1.51%     98.42% # Class of committed instruction (Count)
system.cpu0.commit.committedInstType_0::FloatMemWrite       312653      1.58%    100.00% # Class of committed instruction (Count)
system.cpu0.commit.committedInstType_0::IprAccess            0      0.00%    100.00% # Class of committed instruction (Count)
system.cpu0.commit.committedInstType_0::InstPrefetch            0      0.00%    100.00% # Class of committed instruction (Count)
system.cpu0.commit.committedInstType_0::SimdUnitStrideLoad            0      0.00%    100.00% # Class of committed instruction (Count)
system.cpu0.commit.committedInstType_0::SimdUnitStrideStore            0      0.00%    100.00% # Class of committed instruction (Count)
system.cpu0.commit.committedInstType_0::SimdUnitStrideMaskLoad            0      0.00%    100.00% # Class of committed instruction (Count)
system.cpu0.commit.committedInstType_0::SimdUnitStrideMaskStore            0      0.00%    100.00% # Class of committed instruction (Count)
system.cpu0.commit.committedInstType_0::SimdStridedLoad            0      0.00%    100.00% # Class of committed instruction (Count)
system.cpu0.commit.committedInstType_0::SimdStridedStore            0      0.00%    100.00% # Class of committed instruction (Count)
system.cpu0.commit.committedInstType_0::SimdIndexedLoad            0      0.00%    100.00% # Class of committed instruction (Count)
system.cpu0.commit.committedInstType_0::SimdIndexedStore            0      0.00%    100.00% # Class of committed instruction (Count)
system.cpu0.commit.committedInstType_0::SimdWholeRegisterLoad            0      0.00%    100.00% # Class of committed instruction (Count)
system.cpu0.commit.committedInstType_0::SimdWholeRegisterStore            0      0.00%    100.00% # Class of committed instruction (Count)
system.cpu0.commit.committedInstType_0::SimdUnitStrideFaultOnlyFirstLoad            0      0.00%    100.00% # Class of committed instruction (Count)
system.cpu0.commit.committedInstType_0::SimdUnitStrideSegmentedLoad            0      0.00%    100.00% # Class of committed instruction (Count)
system.cpu0.commit.committedInstType_0::SimdUnitStrideSegmentedStore            0      0.00%    100.00% # Class of committed instruction (Count)
system.cpu0.commit.committedInstType_0::SimdExt            0      0.00%    100.00% # Class of committed instruction (Count)
system.cpu0.commit.committedInstType_0::SimdFloatExt            0      0.00%    100.00% # Class of committed instruction (Count)
system.cpu0.commit.committedInstType_0::SimdConfig            0      0.00%    100.00% # Class of committed instruction (Count)
system.cpu0.commit.committedInstType_0::total     19821801                       # Class of committed instruction (Count)
system.cpu0.commit.commitEligibleSamples      1451505                       # number cycles where commit BW limit reached (Cycle)
system.cpu0.commit.memoryViolations              1309                       # Number of memory violations (Cycle)
system.cpu0.commit.stalledBranchMispredicts            0                       # Number of delayed branch squashes (Cycle)
system.cpu0.commit.stalledMemoryViolations            0                       # Number of delayed memory violation squashes (Cycle)
system.cpu0.commit.protStores                  371818                       # [Protean] Number of protected stores (Count)
system.cpu0.commit.regTaints                        0                       # [Protean] Number of r-taint primitives (Count)
system.cpu0.commit.memTaints                        0                       # [Protean] Number of m-taint primitives (Count)
system.cpu0.commit.xmitTaints                  787405                       # [Protean] Number of x-taint primitives (Count)
system.cpu0.commit.predAccess                  278343                       # [Protean] Correctly predicted access loads (Count)
system.cpu0.commit.predNoAccess               2670079                       # [Protean] Correctly predicted no-access loads (Count)
system.cpu0.commit.mispredAccess                36653                       # [Protean] Mispredicted access loads (Count)
system.cpu0.commit.mispredNoAccess                619                       # [Protean] Mispredicted no-access loads (Count)
system.cpu0.commitStats0.numInsts            10781771                       # Number of instructions committed (thread level) (Count)
system.cpu0.commitStats0.numOps              19821801                       # Number of ops (including micro ops) committed (thread level) (Count)
system.cpu0.commitStats0.numInstsNotNOP      10781771                       # Number of instructions committed excluding NOPs or prefetches (Count)
system.cpu0.commitStats0.numOpsNotNOP        19821801                       # Number of Ops (including micro ops) Simulated (Count)
system.cpu0.commitStats0.cpi                 0.770295                       # CPI: cycles per instruction (thread level) ((Cycle/Count))
system.cpu0.commitStats0.ipc                 1.298204                       # IPC: instructions per cycle (thread level) ((Count/Cycle))
system.cpu0.commitStats0.numMemRefs           4880999                       # Number of memory references committed (Count)
system.cpu0.commitStats0.numFpInsts           2270334                       # Number of float instructions (Count)
system.cpu0.commitStats0.numIntInsts         17889417                       # Number of integer instructions (Count)
system.cpu0.commitStats0.numLoadInsts         2985694                       # Number of load instructions (Count)
system.cpu0.commitStats0.numStoreInsts        1895305                       # Number of store instructions (Count)
system.cpu0.commitStats0.numVecInsts                0                       # Number of vector instructions (Count)
system.cpu0.commitStats0.committedInstType::No_OpClass       405542      2.05%      2.05% # Class of committed instruction. (Count)
system.cpu0.commitStats0.committedInstType::IntAlu     12782962     64.49%     66.54% # Class of committed instruction. (Count)
system.cpu0.commitStats0.committedInstType::IntMult       161836      0.82%     67.35% # Class of committed instruction. (Count)
system.cpu0.commitStats0.committedInstType::IntDiv           84      0.00%     67.35% # Class of committed instruction. (Count)
system.cpu0.commitStats0.committedInstType::FloatAdd       356503      1.80%     69.15% # Class of committed instruction. (Count)
system.cpu0.commitStats0.committedInstType::FloatCmp            0      0.00%     69.15% # Class of committed instruction. (Count)
system.cpu0.commitStats0.committedInstType::FloatCvt            0      0.00%     69.15% # Class of committed instruction. (Count)
system.cpu0.commitStats0.committedInstType::FloatMult            0      0.00%     69.15% # Class of committed instruction. (Count)
system.cpu0.commitStats0.committedInstType::FloatMultAcc            0      0.00%     69.15% # Class of committed instruction. (Count)
system.cpu0.commitStats0.committedInstType::FloatDiv            0      0.00%     69.15% # Class of committed instruction. (Count)
[...]
system.ruby.network.routers4.throttle00.avg_msg_wait_time          nan                       # Average time a message took to be forwarded (Ratio)
system.ruby.network.routers4.throttle00.avg_bandwidth         0.00                       # Average bandwidth (GB/s) (Ratio)
system.ruby.network.routers4.throttle00.avg_useful_bandwidth         0.00                       # Average usefull (only data) bandwidth (GB/s) (Ratio)
system.ruby.network.routers4.throttle01.acc_link_utilization            0                       # Accumulated link utilization (Count)
system.ruby.network.routers4.throttle01.link_utilization            0                       # Average link utilization (Ratio)
system.ruby.network.routers4.throttle01.total_msg_count            0                       # Total number of messages forwarded by this switch (Count)
system.ruby.network.routers4.throttle01.total_msg_bytes            0                       # Total number of bytes forwarded by this switch (Byte)
system.ruby.network.routers4.throttle01.total_data_msg_bytes            0                       # Total number of data bytes forwarded by this switch (Byte)
system.ruby.network.routers4.throttle01.total_msg_wait_time            0                       # Total time spend forwarding messages (Tick)
system.ruby.network.routers4.throttle01.total_stall_cy            0                       # Total time spent blocked on any output link (Cycle)
system.ruby.network.routers4.throttle01.total_bw_sat_cy            0                       # Total time bandwidth was saturated on any output link (Cycle)
system.ruby.network.routers4.throttle01.avg_msg_wait_time          nan                       # Average time a message took to be forwarded (Ratio)
system.ruby.network.routers4.throttle01.avg_bandwidth         0.00                       # Average bandwidth (GB/s) (Ratio)
system.ruby.network.routers4.throttle01.avg_useful_bandwidth         0.00                       # Average usefull (only data) bandwidth (GB/s) (Ratio)
system.ruby.network.routers5.percent_links_utilized            0                       (Unspecified)
system.ruby.network.routers5.power_state.pwrStateResidencyTicks::UNDEFINED 274874403888                       # Cumulative time (in ticks) in various power states (Tick)
system.ruby.network.routers5.throttle00.acc_link_utilization            0                       # Accumulated link utilization (Count)
system.ruby.network.routers5.throttle00.link_utilization            0                       # Average link utilization (Ratio)
system.ruby.network.routers5.throttle00.total_msg_count            0                       # Total number of messages forwarded by this switch (Count)
system.ruby.network.routers5.throttle00.total_msg_bytes            0                       # Total number of bytes forwarded by this switch (Byte)
system.ruby.network.routers5.throttle00.total_data_msg_bytes            0                       # Total number of data bytes forwarded by this switch (Byte)
system.ruby.network.routers5.throttle00.total_msg_wait_time            0                       # Total time spend forwarding messages (Tick)
system.ruby.network.routers5.throttle00.total_stall_cy            0                       # Total time spent blocked on any output link (Cycle)
system.ruby.network.routers5.throttle00.total_bw_sat_cy            0                       # Total time bandwidth was saturated on any output link (Cycle)
system.ruby.network.routers5.throttle00.avg_msg_wait_time          nan                       # Average time a message took to be forwarded (Ratio)
system.ruby.network.routers5.throttle00.avg_bandwidth         0.00                       # Average bandwidth (GB/s) (Ratio)
system.ruby.network.routers5.throttle00.avg_useful_bandwidth         0.00                       # Average usefull (only data) bandwidth (GB/s) (Ratio)
system.ruby.network.routers5.throttle01.acc_link_utilization            0                       # Accumulated link utilization (Count)
system.ruby.network.routers5.throttle01.link_utilization            0                       # Average link utilization (Ratio)
system.ruby.network.routers5.throttle01.total_msg_count            0                       # Total number of messages forwarded by this switch (Count)
system.ruby.network.routers5.throttle01.total_msg_bytes            0                       # Total number of bytes forwarded by this switch (Byte)
system.ruby.network.routers5.throttle01.total_data_msg_bytes            0                       # Total number of data bytes forwarded by this switch (Byte)
system.ruby.network.routers5.throttle01.total_msg_wait_time            0                       # Total time spend forwarding messages (Tick)
system.ruby.network.routers5.throttle01.total_stall_cy            0                       # Total time spent blocked on any output link (Cycle)
system.ruby.network.routers5.throttle01.total_bw_sat_cy            0                       # Total time bandwidth was saturated on any output link (Cycle)
system.ruby.network.routers5.throttle01.avg_msg_wait_time          nan                       # Average time a message took to be forwarded (Ratio)
system.ruby.network.routers5.throttle01.avg_bandwidth         0.00                       # Average bandwidth (GB/s) (Ratio)
system.ruby.network.routers5.throttle01.avg_useful_bandwidth         0.00                       # Average usefull (only data) bandwidth (GB/s) (Ratio)
system.ruby.network.routers6.percent_links_utilized            0                       (Unspecified)
system.ruby.network.routers6.power_state.pwrStateResidencyTicks::UNDEFINED 274874403888                       # Cumulative time (in ticks) in various power states (Tick)
system.ruby.network.routers6.throttle00.acc_link_utilization            0                       # Accumulated link utilization (Count)
system.ruby.network.routers6.throttle00.link_utilization            0                       # Average link utilization (Ratio)
system.ruby.network.routers6.throttle00.total_msg_count            0                       # Total number of messages forwarded by this switch (Count)
system.ruby.network.routers6.throttle00.total_msg_bytes            0                       # Total number of bytes forwarded by this switch (Byte)
system.ruby.network.routers6.throttle00.total_data_msg_bytes            0                       # Total number of data bytes forwarded by this switch (Byte)
system.ruby.network.routers6.throttle00.total_msg_wait_time            0                       # Total time spend forwarding messages (Tick)
system.ruby.network.routers6.throttle00.total_stall_cy            0                       # Total time spent blocked on any output link (Cycle)
system.ruby.network.routers6.throttle00.total_bw_sat_cy            0                       # Total time bandwidth was saturated on any output link (Cycle)
system.ruby.network.routers6.throttle00.avg_msg_wait_time          nan                       # Average time a message took to be forwarded (Ratio)
system.ruby.network.routers6.throttle00.avg_bandwidth         0.00                       # Average bandwidth (GB/s) (Ratio)
system.ruby.network.routers6.throttle00.avg_useful_bandwidth         0.00                       # Average usefull (only data) bandwidth (GB/s) (Ratio)
system.ruby.network.routers6.throttle01.acc_link_utilization            0                       # Accumulated link utilization (Count)
system.ruby.network.routers6.throttle01.link_utilization            0                       # Average link utilization (Ratio)
system.ruby.network.routers6.throttle01.total_msg_count            0                       # Total number of messages forwarded by this switch (Count)
system.ruby.network.routers6.throttle01.total_msg_bytes            0                       # Total number of bytes forwarded by this switch (Byte)
system.ruby.network.routers6.throttle01.total_data_msg_bytes            0                       # Total number of data bytes forwarded by this switch (Byte)
system.ruby.network.routers6.throttle01.total_msg_wait_time            0                       # Total time spend forwarding messages (Tick)
system.ruby.network.routers6.throttle01.total_stall_cy            0                       # Total time spent blocked on any output link (Cycle)
system.ruby.network.routers6.throttle01.total_bw_sat_cy            0                       # Total time bandwidth was saturated on any output link (Cycle)
system.ruby.network.routers6.throttle01.avg_msg_wait_time          nan                       # Average time a message took to be forwarded (Ratio)
system.ruby.network.routers6.throttle01.avg_bandwidth         0.00                       # Average bandwidth (GB/s) (Ratio)
system.ruby.network.routers6.throttle01.avg_useful_bandwidth         0.00                       # Average usefull (only data) bandwidth (GB/s) (Ratio)
system.ruby.network.routers7.percent_links_utilized            0                       (Unspecified)
system.ruby.network.routers7.power_state.pwrStateResidencyTicks::UNDEFINED 274874403888                       # Cumulative time (in ticks) in various power states (Tick)
system.ruby.network.routers7.throttle00.acc_link_utilization            0                       # Accumulated link utilization (Count)
system.ruby.network.routers7.throttle00.link_utilization            0                       # Average link utilization (Ratio)
system.ruby.network.routers7.throttle00.total_msg_count            0                       # Total number of messages forwarded by this switch (Count)
system.ruby.network.routers7.throttle00.total_msg_bytes            0                       # Total number of bytes forwarded by this switch (Byte)
system.ruby.network.routers7.throttle00.total_data_msg_bytes            0                       # Total number of data bytes forwarded by this switch (Byte)
system.ruby.network.routers7.throttle00.total_msg_wait_time            0                       # Total time spend forwarding messages (Tick)
system.ruby.network.routers7.throttle00.total_stall_cy            0                       # Total time spent blocked on any output link (Cycle)
system.ruby.network.routers7.throttle00.total_bw_sat_cy            0                       # Total time bandwidth was saturated on any output link (Cycle)
system.ruby.network.routers7.throttle00.avg_msg_wait_time          nan                       # Average time a message took to be forwarded (Ratio)
system.ruby.network.routers7.throttle00.avg_bandwidth         0.00                       # Average bandwidth (GB/s) (Ratio)
system.ruby.network.routers7.throttle00.avg_useful_bandwidth         0.00                       # Average usefull (only data) bandwidth (GB/s) (Ratio)
system.ruby.network.routers7.throttle01.acc_link_utilization            0                       # Accumulated link utilization (Count)
system.ruby.network.routers7.throttle01.link_utilization            0                       # Average link utilization (Ratio)
system.ruby.network.routers7.throttle01.total_msg_count            0                       # Total number of messages forwarded by this switch (Count)
system.ruby.network.routers7.throttle01.total_msg_bytes            0                       # Total number of bytes forwarded by this switch (Byte)
system.ruby.network.routers7.throttle01.total_data_msg_bytes            0                       # Total number of data bytes forwarded by this switch (Byte)
system.ruby.network.routers7.throttle01.total_msg_wait_time            0                       # Total time spend forwarding messages (Tick)
system.ruby.network.routers7.throttle01.total_stall_cy            0                       # Total time spent blocked on any output link (Cycle)
system.ruby.network.routers7.throttle01.total_bw_sat_cy            0                       # Total time bandwidth was saturated on any output link (Cycle)
system.ruby.network.routers7.throttle01.avg_msg_wait_time          nan                       # Average time a message took to be forwarded (Ratio)
system.ruby.network.routers7.throttle01.avg_bandwidth         0.00                       # Average bandwidth (GB/s) (Ratio)
system.ruby.network.routers7.throttle01.avg_useful_bandwidth         0.00                       # Average usefull (only data) bandwidth (GB/s) (Ratio)
system.ruby.network.routers8.percent_links_utilized            0                       (Unspecified)
system.ruby.network.routers8.power_state.pwrStateResidencyTicks::UNDEFINED 274874403888                       # Cumulative time (in ticks) in various power states (Tick)
system.ruby.network.routers8.throttle00.acc_link_utilization            0                       # Accumulated link utilization (Count)
system.ruby.network.routers8.throttle00.link_utilization            0                       # Average link utilization (Ratio)
system.ruby.network.routers8.throttle00.total_msg_count            0                       # Total number of messages forwarded by this switch (Count)
system.ruby.network.routers8.throttle00.total_msg_bytes            0                       # Total number of bytes forwarded by this switch (Byte)
system.ruby.network.routers8.throttle00.total_data_msg_bytes            0                       # Total number of data bytes forwarded by this switch (Byte)
system.ruby.network.routers8.throttle00.total_msg_wait_time            0                       # Total time spend forwarding messages (Tick)
system.ruby.network.routers8.throttle00.total_stall_cy            0                       # Total time spent blocked on any output link (Cycle)
system.ruby.network.routers8.throttle00.total_bw_sat_cy            0                       # Total time bandwidth was saturated on any output link (Cycle)
system.ruby.network.routers8.throttle00.avg_msg_wait_time          nan                       # Average time a message took to be forwarded (Ratio)
system.ruby.network.routers8.throttle00.avg_bandwidth         0.00                       # Average bandwidth (GB/s) (Ratio)
system.ruby.network.routers8.throttle00.avg_useful_bandwidth         0.00                       # Average usefull (only data) bandwidth (GB/s) (Ratio)
system.ruby.network.routers8.throttle01.acc_link_utilization            0                       # Accumulated link utilization (Count)
system.ruby.network.routers8.throttle01.link_utilization            0                       # Average link utilization (Ratio)
system.ruby.network.routers8.throttle01.total_msg_count            0                       # Total number of messages forwarded by this switch (Count)
system.ruby.network.routers8.throttle01.total_msg_bytes            0                       # Total number of bytes forwarded by this switch (Byte)
system.ruby.network.routers8.throttle01.total_data_msg_bytes            0                       # Total number of data bytes forwarded by this switch (Byte)
system.ruby.network.routers8.throttle01.total_msg_wait_time            0                       # Total time spend forwarding messages (Tick)
system.ruby.network.routers8.throttle01.total_stall_cy            0                       # Total time spent blocked on any output link (Cycle)
system.ruby.network.routers8.throttle01.total_bw_sat_cy            0                       # Total time bandwidth was saturated on any output link (Cycle)
system.ruby.network.routers8.throttle01.avg_msg_wait_time          nan                       # Average time a message took to be forwarded (Ratio)
system.ruby.network.routers8.throttle01.avg_bandwidth         0.00                       # Average bandwidth (GB/s) (Ratio)
system.ruby.network.routers8.throttle01.avg_useful_bandwidth         0.00                       # Average usefull (only data) bandwidth (GB/s) (Ratio)
system.ruby.network.routers9.percent_links_utilized            0                       (Unspecified)
system.ruby.network.routers9.power_state.pwrStateResidencyTicks::UNDEFINED 274874403888                       # Cumulative time (in ticks) in various power states (Tick)
system.ruby.network.routers9.throttle00.acc_link_utilization            0                       # Accumulated link utilization (Count)
system.ruby.network.routers9.throttle00.link_utilization            0                       # Average link utilization (Ratio)
system.ruby.network.routers9.throttle00.total_msg_count            0                       # Total number of messages forwarded by this switch (Count)
system.ruby.network.routers9.throttle00.total_msg_bytes            0                       # Total number of bytes forwarded by this switch (Byte)
system.ruby.network.routers9.throttle00.total_data_msg_bytes            0                       # Total number of data bytes forwarded by this switch (Byte)
system.ruby.network.routers9.throttle00.total_msg_wait_time            0                       # Total time spend forwarding messages (Tick)
system.ruby.network.routers9.throttle00.total_stall_cy            0                       # Total time spent blocked on any output link (Cycle)
system.ruby.network.routers9.throttle00.total_bw_sat_cy            0                       # Total time bandwidth was saturated on any output link (Cycle)
system.ruby.network.routers9.throttle00.avg_msg_wait_time          nan                       # Average time a message took to be forwarded (Ratio)
system.ruby.network.routers9.throttle00.avg_bandwidth         0.00                       # Average bandwidth (GB/s) (Ratio)
system.ruby.network.routers9.throttle00.avg_useful_bandwidth         0.00                       # Average usefull (only data) bandwidth (GB/s) (Ratio)
system.ruby.network.routers9.throttle01.acc_link_utilization            0                       # Accumulated link utilization (Count)
system.ruby.network.routers9.throttle01.link_utilization            0                       # Average link utilization (Ratio)
system.ruby.network.routers9.throttle01.total_msg_count            0                       # Total number of messages forwarded by this switch (Count)
system.ruby.network.routers9.throttle01.total_msg_bytes            0                       # Total number of bytes forwarded by this switch (Byte)
system.ruby.network.routers9.throttle01.total_data_msg_bytes            0                       # Total number of data bytes forwarded by this switch (Byte)
system.ruby.network.routers9.throttle01.total_msg_wait_time            0                       # Total time spend forwarding messages (Tick)
system.ruby.network.routers9.throttle01.total_stall_cy            0                       # Total time spent blocked on any output link (Cycle)
system.ruby.network.routers9.throttle01.total_bw_sat_cy            0                       # Total time bandwidth was saturated on any output link (Cycle)
system.ruby.network.routers9.throttle01.avg_msg_wait_time          nan                       # Average time a message took to be forwarded (Ratio)
system.ruby.network.routers9.throttle01.avg_bandwidth         0.00                       # Average bandwidth (GB/s) (Ratio)
system.ruby.network.routers9.throttle01.avg_useful_bandwidth         0.00                       # Average usefull (only data) bandwidth (GB/s) (Ratio)
system.ruby.power_state.pwrStateResidencyTicks::UNDEFINED 274874403888                       # Cumulative time (in ticks) in various power states (Tick)
system.sys_port_proxy.power_state.pwrStateResidencyTicks::UNDEFINED 274874403888                       # Cumulative time (in ticks) in various power states (Tick)
system.voltage_domain.voltage                       1                       # Voltage in Volts (Volt)
system.workload.inst.arm                            0                       # number of arm instructions executed (Count)
system.workload.inst.quiesce                        0                       # number of quiesce instructions executed (Count)

---------- End Simulation Statistics   ----------
