
---------- Begin Simulation Statistics ----------
simSeconds                                   0.198635                       # Number of seconds simulated (Second)
simTicks                                 198635129154                       # Number of ticks simulated (Tick)
finalTick                                198635129154                       # Number of ticks from beginning of simulation (restored from checkpoints and never reset) (Tick)
simFreq                                  1000000000000                       # The number of ticks per simulated second ((Tick/Second))
hostSeconds                                  13579.10                       # Real time elapsed on the host (Second)
hostTickRate                                 14627999                       # The number of ticks simulated per host second (ticks/s) ((Tick/Second))
hostMemory                                    1836868                       # Number of bytes of host memory used (Byte)
simInsts                                   1511057926                       # Number of instructions simulated (Count)
simOps                                     2645127388                       # Number of ops (including micro ops) simulated (Count)
hostInstRate                                   111278                       # Simulator instruction rate (inst/s) ((Count/Second))
hostOpRate                                     194794                       # Simulator op (including micro ops) rate (op/s) ((Count/Second))
system.clk_domain.clock                          1000                       # Clock period in ticks (Tick)
system.cpu0.numCycles                        11674459                       # Number of cpu cycles simulated (Cycle)
system.cpu0.cpi                              1.151804                       # CPI: cycles per instruction (core level) ((Cycle/Count))
system.cpu0.ipc                              0.868203                       # IPC: instructions per cycle (core level) ((Count/Cycle))
system.cpu0.numWorkItemsStarted                     0                       # Number of work items this cpu started (Count)
system.cpu0.numWorkItemsCompleted                   0                       # Number of work items this cpu completed (Count)
system.cpu0.instsAdded                       26608720                       # Number of instructions added to the IQ (excludes non-spec) (Count)
system.cpu0.nonSpecInstsAdded                   50327                       # Number of non-speculative instructions added to the IQ (Count)
system.cpu0.instsIssued                      25807328                       # Number of instructions issued (Count)
system.cpu0.squashedInstsIssued                 30003                       # Number of squashed instructions issued (Count)
system.cpu0.squashedInstsExamined             2620405                       # Number of squashed instructions iterated over during squash; mainly for profiling (Count)
system.cpu0.squashedOperandsExamined          4737562                       # Number of squashed operands that are examined and possibly removed from graph (Count)
system.cpu0.squashedNonSpecRemoved              14414                       # Number of squashed non-spec instructions that were removed (Count)
system.cpu0.numIssuedDist::samples           11544128                       # Number of insts issued each cycle (Count)
system.cpu0.numIssuedDist::mean              2.235537                       # Number of insts issued each cycle (Count)
system.cpu0.numIssuedDist::stdev             2.006510                       # Number of insts issued each cycle (Count)
system.cpu0.numIssuedDist::underflows               0      0.00%      0.00% # Number of insts issued each cycle (Count)
system.cpu0.numIssuedDist::0                  3032679     26.27%     26.27% # Number of insts issued each cycle (Count)
system.cpu0.numIssuedDist::1                  1830522     15.86%     42.13% # Number of insts issued each cycle (Count)
system.cpu0.numIssuedDist::2                  2068726     17.92%     60.05% # Number of insts issued each cycle (Count)
system.cpu0.numIssuedDist::3                  1798066     15.58%     75.62% # Number of insts issued each cycle (Count)
system.cpu0.numIssuedDist::4                  1089622      9.44%     85.06% # Number of insts issued each cycle (Count)
system.cpu0.numIssuedDist::5                   783173      6.78%     91.85% # Number of insts issued each cycle (Count)
system.cpu0.numIssuedDist::6                   511283      4.43%     96.27% # Number of insts issued each cycle (Count)
system.cpu0.numIssuedDist::7                   337351      2.92%     99.20% # Number of insts issued each cycle (Count)
system.cpu0.numIssuedDist::8                    92706      0.80%    100.00% # Number of insts issued each cycle (Count)
system.cpu0.numIssuedDist::overflows                0      0.00%    100.00% # Number of insts issued each cycle (Count)
system.cpu0.numIssuedDist::min_value                0                       # Number of insts issued each cycle (Count)
system.cpu0.numIssuedDist::max_value                8                       # Number of insts issued each cycle (Count)
system.cpu0.numIssuedDist::total             11544128                       # Number of insts issued each cycle (Count)
system.cpu0.statFuBusy::No_OpClass                  0      0.00%      0.00% # attempts to use FU when none available (Count)
system.cpu0.statFuBusy::IntAlu                  97276     40.10%     40.10% # attempts to use FU when none available (Count)
system.cpu0.statFuBusy::IntMult                     0      0.00%     40.10% # attempts to use FU when none available (Count)
system.cpu0.statFuBusy::IntDiv                      0      0.00%     40.10% # attempts to use FU when none available (Count)
system.cpu0.statFuBusy::FloatAdd                    0      0.00%     40.10% # attempts to use FU when none available (Count)
system.cpu0.statFuBusy::FloatCmp                    0      0.00%     40.10% # attempts to use FU when none available (Count)
system.cpu0.statFuBusy::FloatCvt                    0      0.00%     40.10% # attempts to use FU when none available (Count)
system.cpu0.statFuBusy::FloatMult                   0      0.00%     40.10% # attempts to use FU when none available (Count)
system.cpu0.statFuBusy::FloatMultAcc                0      0.00%     40.10% # attempts to use FU when none available (Count)
system.cpu0.statFuBusy::FloatDiv                    0      0.00%     40.10% # attempts to use FU when none available (Count)
system.cpu0.statFuBusy::FloatMisc                   0      0.00%     40.10% # attempts to use FU when none available (Count)
system.cpu0.statFuBusy::FloatSqrt                   0      0.00%     40.10% # attempts to use FU when none available (Count)
system.cpu0.statFuBusy::SimdAdd                     0      0.00%     40.10% # attempts to use FU when none available (Count)
system.cpu0.statFuBusy::SimdAddAcc                  0      0.00%     40.10% # attempts to use FU when none available (Count)
system.cpu0.statFuBusy::SimdAlu                     0      0.00%     40.10% # attempts to use FU when none available (Count)
system.cpu0.statFuBusy::SimdCmp                     0      0.00%     40.10% # attempts to use FU when none available (Count)
system.cpu0.statFuBusy::SimdCvt                     0      0.00%     40.10% # attempts to use FU when none available (Count)
system.cpu0.statFuBusy::SimdMisc                    0      0.00%     40.10% # attempts to use FU when none available (Count)
system.cpu0.statFuBusy::SimdMult                    0      0.00%     40.10% # attempts to use FU when none available (Count)
system.cpu0.statFuBusy::SimdMultAcc                 0      0.00%     40.10% # attempts to use FU when none available (Count)
system.cpu0.statFuBusy::SimdMatMultAcc              0      0.00%     40.10% # attempts to use FU when none available (Count)
system.cpu0.statFuBusy::SimdShift                   0      0.00%     40.10% # attempts to use FU when none available (Count)
system.cpu0.statFuBusy::SimdShiftAcc                0      0.00%     40.10% # attempts to use FU when none available (Count)
system.cpu0.statFuBusy::SimdDiv                     0      0.00%     40.10% # attempts to use FU when none available (Count)
system.cpu0.statFuBusy::SimdSqrt                    0      0.00%     40.10% # attempts to use FU when none available (Count)
system.cpu0.statFuBusy::SimdFloatAdd                0      0.00%     40.10% # attempts to use FU when none available (Count)
system.cpu0.statFuBusy::SimdFloatAlu                0      0.00%     40.10% # attempts to use FU when none available (Count)
system.cpu0.statFuBusy::SimdFloatCmp                0      0.00%     40.10% # attempts to use FU when none available (Count)
system.cpu0.statFuBusy::SimdFloatCvt                0      0.00%     40.10% # attempts to use FU when none available (Count)
system.cpu0.statFuBusy::SimdFloatDiv                0      0.00%     40.10% # attempts to use FU when none available (Count)
system.cpu0.statFuBusy::SimdFloatMisc               0      0.00%     40.10% # attempts to use FU when none available (Count)
system.cpu0.statFuBusy::SimdFloatMult               0      0.00%     40.10% # attempts to use FU when none available (Count)
system.cpu0.statFuBusy::SimdFloatMultAcc            0      0.00%     40.10% # attempts to use FU when none available (Count)
system.cpu0.statFuBusy::SimdFloatMatMultAcc            0      0.00%     40.10% # attempts to use FU when none available (Count)
system.cpu0.statFuBusy::SimdFloatSqrt               0      0.00%     40.10% # attempts to use FU when none available (Count)
system.cpu0.statFuBusy::SimdReduceAdd               0      0.00%     40.10% # attempts to use FU when none available (Count)
system.cpu0.statFuBusy::SimdReduceAlu               0      0.00%     40.10% # attempts to use FU when none available (Count)
system.cpu0.statFuBusy::SimdReduceCmp               0      0.00%     40.10% # attempts to use FU when none available (Count)
system.cpu0.statFuBusy::SimdFloatReduceAdd            0      0.00%     40.10% # attempts to use FU when none available (Count)
system.cpu0.statFuBusy::SimdFloatReduceCmp            0      0.00%     40.10% # attempts to use FU when none available (Count)
system.cpu0.statFuBusy::SimdAes                     0      0.00%     40.10% # attempts to use FU when none available (Count)
system.cpu0.statFuBusy::SimdAesMix                  0      0.00%     40.10% # attempts to use FU when none available (Count)
system.cpu0.statFuBusy::SimdSha1Hash                0      0.00%     40.10% # attempts to use FU when none available (Count)
system.cpu0.statFuBusy::SimdSha1Hash2               0      0.00%     40.10% # attempts to use FU when none available (Count)
system.cpu0.statFuBusy::SimdSha256Hash              0      0.00%     40.10% # attempts to use FU when none available (Count)
system.cpu0.statFuBusy::SimdSha256Hash2             0      0.00%     40.10% # attempts to use FU when none available (Count)
system.cpu0.statFuBusy::SimdShaSigma2               0      0.00%     40.10% # attempts to use FU when none available (Count)
system.cpu0.statFuBusy::SimdShaSigma3               0      0.00%     40.10% # attempts to use FU when none available (Count)
system.cpu0.statFuBusy::SimdPredAlu                 0      0.00%     40.10% # attempts to use FU when none available (Count)
system.cpu0.statFuBusy::Matrix                      0      0.00%     40.10% # attempts to use FU when none available (Count)
system.cpu0.statFuBusy::MatrixMov                   0      0.00%     40.10% # attempts to use FU when none available (Count)
system.cpu0.statFuBusy::MatrixOP                    0      0.00%     40.10% # attempts to use FU when none available (Count)
system.cpu0.statFuBusy::MemRead                 68656     28.30%     68.39% # attempts to use FU when none available (Count)
system.cpu0.statFuBusy::MemWrite                56045     23.10%     91.49% # attempts to use FU when none available (Count)
system.cpu0.statFuBusy::FloatMemRead            10978      4.52%     96.02% # attempts to use FU when none available (Count)
system.cpu0.statFuBusy::FloatMemWrite            9658      3.98%    100.00% # attempts to use FU when none available (Count)
system.cpu0.statFuBusy::IprAccess                   0      0.00%    100.00% # attempts to use FU when none available (Count)
system.cpu0.statFuBusy::InstPrefetch                0      0.00%    100.00% # attempts to use FU when none available (Count)
system.cpu0.statFuBusy::SimdUnitStrideLoad            0      0.00%    100.00% # attempts to use FU when none available (Count)
system.cpu0.statFuBusy::SimdUnitStrideStore            0      0.00%    100.00% # attempts to use FU when none available (Count)
system.cpu0.statFuBusy::SimdUnitStrideMaskLoad            0      0.00%    100.00% # attempts to use FU when none available (Count)
system.cpu0.statFuBusy::SimdUnitStrideMaskStore            0      0.00%    100.00% # attempts to use FU when none available (Count)
system.cpu0.statFuBusy::SimdStridedLoad             0      0.00%    100.00% # attempts to use FU when none available (Count)
system.cpu0.statFuBusy::SimdStridedStore            0      0.00%    100.00% # attempts to use FU when none available (Count)
system.cpu0.statFuBusy::SimdIndexedLoad             0      0.00%    100.00% # attempts to use FU when none available (Count)
system.cpu0.statFuBusy::SimdIndexedStore            0      0.00%    100.00% # attempts to use FU when none available (Count)
system.cpu0.statFuBusy::SimdWholeRegisterLoad            0      0.00%    100.00% # attempts to use FU when none available (Count)
system.cpu0.statFuBusy::SimdWholeRegisterStore            0      0.00%    100.00% # attempts to use FU when none available (Count)
system.cpu0.statFuBusy::SimdUnitStrideFaultOnlyFirstLoad            0      0.00%    100.00% # attempts to use FU when none available (Count)
system.cpu0.statFuBusy::SimdUnitStrideSegmentedLoad            0      0.00%    100.00% # attempts to use FU when none available (Count)
system.cpu0.statFuBusy::SimdUnitStrideSegmentedStore            0      0.00%    100.00% # attempts to use FU when none available (Count)
system.cpu0.statFuBusy::SimdExt                     0      0.00%    100.00% # attempts to use FU when none available (Count)
system.cpu0.statFuBusy::SimdFloatExt                0      0.00%    100.00% # attempts to use FU when none available (Count)
system.cpu0.statFuBusy::SimdConfig                  0      0.00%    100.00% # attempts to use FU when none available (Count)
system.cpu0.statIssuedInstType_0::No_OpClass       142616      0.55%      0.55% # Number of instructions issued per FU type, per thread (Count)
system.cpu0.statIssuedInstType_0::IntAlu     19721623     76.42%     76.97% # Number of instructions issued per FU type, per thread (Count)
system.cpu0.statIssuedInstType_0::IntMult       185357      0.72%     77.69% # Number of instructions issued per FU type, per thread (Count)
system.cpu0.statIssuedInstType_0::IntDiv      1222932      4.74%     82.43% # Number of instructions issued per FU type, per thread (Count)
system.cpu0.statIssuedInstType_0::FloatAdd        15258      0.06%     82.49% # Number of instructions issued per FU type, per thread (Count)
system.cpu0.statIssuedInstType_0::FloatCmp            0      0.00%     82.49% # Number of instructions issued per FU type, per thread (Count)
system.cpu0.statIssuedInstType_0::FloatCvt            0      0.00%     82.49% # Number of instructions issued per FU type, per thread (Count)
system.cpu0.statIssuedInstType_0::FloatMult            0      0.00%     82.49% # Number of instructions issued per FU type, per thread (Count)
system.cpu0.statIssuedInstType_0::FloatMultAcc            0      0.00%     82.49% # Number of instructions issued per FU type, per thread (Count)
system.cpu0.statIssuedInstType_0::FloatDiv            0      0.00%     82.49% # Number of instructions issued per FU type, per thread (Count)
system.cpu0.statIssuedInstType_0::FloatMisc            0      0.00%     82.49% # Number of instructions issued per FU type, per thread (Count)
system.cpu0.statIssuedInstType_0::FloatSqrt            0      0.00%     82.49% # Number of instructions issued per FU type, per thread (Count)
system.cpu0.statIssuedInstType_0::SimdAdd           10      0.00%     82.49% # Number of instructions issued per FU type, per thread (Count)
system.cpu0.statIssuedInstType_0::SimdAddAcc            0      0.00%     82.49% # Number of instructions issued per FU type, per thread (Count)
system.cpu0.statIssuedInstType_0::SimdAlu        13103      0.05%     82.54% # Number of instructions issued per FU type, per thread (Count)
system.cpu0.statIssuedInstType_0::SimdCmp            0      0.00%     82.54% # Number of instructions issued per FU type, per thread (Count)
system.cpu0.statIssuedInstType_0::SimdCvt           14      0.00%     82.54% # Number of instructions issued per FU type, per thread (Count)
system.cpu0.statIssuedInstType_0::SimdMisc        29726      0.12%     82.65% # Number of instructions issued per FU type, per thread (Count)
system.cpu0.statIssuedInstType_0::SimdMult            0      0.00%     82.65% # Number of instructions issued per FU type, per thread (Count)
system.cpu0.statIssuedInstType_0::SimdMultAcc            0      0.00%     82.65% # Number of instructions issued per FU type, per thread (Count)
system.cpu0.statIssuedInstType_0::SimdMatMultAcc            0      0.00%     82.65% # Number of instructions issued per FU type, per thread (Count)
system.cpu0.statIssuedInstType_0::SimdShift            5      0.00%     82.65% # Number of instructions issued per FU type, per thread (Count)
system.cpu0.statIssuedInstType_0::SimdShiftAcc            0      0.00%     82.65% # Number of instructions issued per FU type, per thread (Count)
system.cpu0.statIssuedInstType_0::SimdDiv            0      0.00%     82.65% # Number of instructions issued per FU type, per thread (Count)
system.cpu0.statIssuedInstType_0::SimdSqrt            0      0.00%     82.65% # Number of instructions issued per FU type, per thread (Count)
system.cpu0.statIssuedInstType_0::SimdFloatAdd           46      0.00%     82.65% # Number of instructions issued per FU type, per thread (Count)
system.cpu0.statIssuedInstType_0::SimdFloatAlu            0      0.00%     82.65% # Number of instructions issued per FU type, per thread (Count)
system.cpu0.statIssuedInstType_0::SimdFloatCmp            0      0.00%     82.65% # Number of instructions issued per FU type, per thread (Count)
system.cpu0.statIssuedInstType_0::SimdFloatCvt           20      0.00%     82.65% # Number of instructions issued per FU type, per thread (Count)
system.cpu0.statIssuedInstType_0::SimdFloatDiv            2      0.00%     82.65% # Number of instructions issued per FU type, per thread (Count)
system.cpu0.statIssuedInstType_0::SimdFloatMisc            0      0.00%     82.65% # Number of instructions issued per FU type, per thread (Count)
system.cpu0.statIssuedInstType_0::SimdFloatMult           25      0.00%     82.65% # Number of instructions issued per FU type, per thread (Count)
system.cpu0.statIssuedInstType_0::SimdFloatMultAcc            0      0.00%     82.65% # Number of instructions issued per FU type, per thread (Count)
system.cpu0.statIssuedInstType_0::SimdFloatMatMultAcc            0      0.00%     82.65% # Number of instructions issued per FU type, per thread (Count)
system.cpu0.statIssuedInstType_0::SimdFloatSqrt            0      0.00%     82.65% # Number of instructions issued per FU type, per thread (Count)
system.cpu0.statIssuedInstType_0::SimdReduceAdd            0      0.00%     82.65% # Number of instructions issued per FU type, per thread (Count)
system.cpu0.statIssuedInstType_0::SimdReduceAlu            0      0.00%     82.65% # Number of instructions issued per FU type, per thread (Count)
system.cpu0.statIssuedInstType_0::SimdReduceCmp            0      0.00%     82.65% # Number of instructions issued per FU type, per thread (Count)
system.cpu0.statIssuedInstType_0::SimdFloatReduceAdd            0      0.00%     82.65% # Number of instructions issued per FU type, per thread (Count)
system.cpu0.statIssuedInstType_0::SimdFloatReduceCmp            0      0.00%     82.65% # Number of instructions issued per FU type, per thread (Count)
system.cpu0.statIssuedInstType_0::SimdAes            0      0.00%     82.65% # Number of instructions issued per FU type, per thread (Count)
system.cpu0.statIssuedInstType_0::SimdAesMix            0      0.00%     82.65% # Number of instructions issued per FU type, per thread (Count)
system.cpu0.statIssuedInstType_0::SimdSha1Hash            0      0.00%     82.65% # Number of instructions issued per FU type, per thread (Count)
system.cpu0.statIssuedInstType_0::SimdSha1Hash2            0      0.00%     82.65% # Number of instructions issued per FU type, per thread (Count)
system.cpu0.statIssuedInstType_0::SimdSha256Hash            0      0.00%     82.65% # Number of instructions issued per FU type, per thread (Count)
system.cpu0.statIssuedInstType_0::SimdSha256Hash2            0      0.00%     82.65% # Number of instructions issued per FU type, per thread (Count)
system.cpu0.statIssuedInstType_0::SimdShaSigma2            0      0.00%     82.65% # Number of instructions issued per FU type, per thread (Count)
system.cpu0.statIssuedInstType_0::SimdShaSigma3            0      0.00%     82.65% # Number of instructions issued per FU type, per thread (Count)
system.cpu0.statIssuedInstType_0::SimdPredAlu            0      0.00%     82.65% # Number of instructions issued per FU type, per thread (Count)
system.cpu0.statIssuedInstType_0::Matrix            0      0.00%     82.65% # Number of instructions issued per FU type, per thread (Count)
system.cpu0.statIssuedInstType_0::MatrixMov            0      0.00%     82.65% # Number of instructions issued per FU type, per thread (Count)
system.cpu0.statIssuedInstType_0::MatrixOP            0      0.00%     82.65% # Number of instructions issued per FU type, per thread (Count)
system.cpu0.statIssuedInstType_0::MemRead      2508610      9.72%     92.37% # Number of instructions issued per FU type, per thread (Count)
system.cpu0.statIssuedInstType_0::MemWrite      1298897      5.03%     97.41% # Number of instructions issued per FU type, per thread (Count)
system.cpu0.statIssuedInstType_0::FloatMemRead       333258      1.29%     98.70% # Number of instructions issued per FU type, per thread (Count)
system.cpu0.statIssuedInstType_0::FloatMemWrite       335826      1.30%    100.00% # Number of instructions issued per FU type, per thread (Count)
system.cpu0.statIssuedInstType_0::IprAccess            0      0.00%    100.00% # Number of instructions issued per FU type, per thread (Count)
system.cpu0.statIssuedInstType_0::InstPrefetch            0      0.00%    100.00% # Number of instructions issued per FU type, per thread (Count)
system.cpu0.statIssuedInstType_0::SimdUnitStrideLoad            0      0.00%    100.00% # Number of instructions issued per FU type, per thread (Count)
system.cpu0.statIssuedInstType_0::SimdUnitStrideStore            0      0.00%    100.00% # Number of instructions issued per FU type, per thread (Count)
system.cpu0.statIssuedInstType_0::SimdUnitStrideMaskLoad            0      0.00%    100.00% # Number of instructions issued per FU type, per thread (Count)
system.cpu0.statIssuedInstType_0::SimdUnitStrideMaskStore            0      0.00%    100.00% # Number of instructions issued per FU type, per thread (Count)
system.cpu0.statIssuedInstType_0::SimdStridedLoad            0      0.00%    100.00% # Number of instructions issued per FU type, per thread (Count)
system.cpu0.statIssuedInstType_0::SimdStridedStore            0      0.00%    100.00% # Number of instructions issued per FU type, per thread (Count)
system.cpu0.statIssuedInstType_0::SimdIndexedLoad            0      0.00%    100.00% # Number of instructions issued per FU type, per thread (Count)
system.cpu0.statIssuedInstType_0::SimdIndexedStore            0      0.00%    100.00% # Number of instructions issued per FU type, per thread (Count)
system.cpu0.statIssuedInstType_0::SimdWholeRegisterLoad            0      0.00%    100.00% # Number of instructions issued per FU type, per thread (Count)
system.cpu0.statIssuedInstType_0::SimdWholeRegisterStore            0      0.00%    100.00% # Number of instructions issued per FU type, per thread (Count)
system.cpu0.statIssuedInstType_0::SimdUnitStrideFaultOnlyFirstLoad            0      0.00%    100.00% # Number of instructions issued per FU type, per thread (Count)
system.cpu0.statIssuedInstType_0::SimdUnitStrideSegmentedLoad            0      0.00%    100.00% # Number of instructions issued per FU type, per thread (Count)
system.cpu0.statIssuedInstType_0::SimdUnitStrideSegmentedStore            0      0.00%    100.00% # Number of instructions issued per FU type, per thread (Count)
system.cpu0.statIssuedInstType_0::SimdExt            0      0.00%    100.00% # Number of instructions issued per FU type, per thread (Count)
system.cpu0.statIssuedInstType_0::SimdFloatExt            0      0.00%    100.00% # Number of instructions issued per FU type, per thread (Count)
system.cpu0.statIssuedInstType_0::SimdConfig            0      0.00%    100.00% # Number of instructions issued per FU type, per thread (Count)
system.cpu0.statIssuedInstType_0::total      25807328                       # Number of instructions issued per FU type, per thread (Count)
system.cpu0.issueRate                        2.210580                       # Inst issue rate ((Count/Cycle))
system.cpu0.fuBusy                             242613                       # FU busy when requested (Count)
system.cpu0.fuBusyRate                       0.009401                       # FU busy rate (busy events/executed inst) ((Count/Count))
system.cpu0.intInstQueueReads                61930856                       # Number of integer instruction queue reads (Count)
system.cpu0.intInstQueueWrites               28438690                       # Number of integer instruction queue writes (Count)
system.cpu0.intInstQueueWakeupAccesses       24915366                       # Number of integer instruction queue wakeup accesses (Count)
system.cpu0.fpInstQueueReads                  1500544                       # Number of floating instruction queue reads (Count)
system.cpu0.fpInstQueueWrites                  850953                       # Number of floating instruction queue writes (Count)
system.cpu0.fpInstQueueWakeupAccesses          712428                       # Number of floating instruction queue wakeup accesses (Count)
system.cpu0.vecInstQueueReads                       0                       # Number of vector instruction queue reads (Count)
system.cpu0.vecInstQueueWrites                      0                       # Number of vector instruction queue writes (Count)
system.cpu0.vecInstQueueWakeupAccesses              0                       # Number of vector instruction queue wakeup accesses (Count)
system.cpu0.intAluAccesses                   25147186                       # Number of integer alu accesses (Count)
system.cpu0.fpAluAccesses                      760139                       # Number of floating point alu accesses (Count)
system.cpu0.vecAluAccesses                          0                       # Number of vector alu accesses (Count)
system.cpu0.numSquashedInsts                   102938                       # Number of squashed instructions skipped in execute (Count)
system.cpu0.numSwp                                  0                       # Number of swp insts executed (Count)
system.cpu0.timesIdled                            996                       # Number of times that the entire CPU went into an idle state and unscheduled itself (Count)
system.cpu0.idleCycles                         130331                       # Total number of cycles that the CPU has spent unscheduled due to idling (Cycle)
system.cpu0.quiesceCycles                   663955233                       # Total number of cycles that CPU has spent quiesced or waiting for an interrupt (Cycle)
system.cpu0.MemDepUnit__0.insertedLoads       2947615                       # Number of loads inserted to the mem dependence unit. (Count)
system.cpu0.MemDepUnit__0.insertedStores      1711637                       # Number of stores inserted to the mem dependence unit. (Count)
system.cpu0.MemDepUnit__0.conflictingLoads       318723                       # Number of conflicting loads. (Count)
system.cpu0.MemDepUnit__0.conflictingStores       209232                       # Number of conflicting stores. (Count)
system.cpu0.MemDepUnit__1.insertedLoads             0                       # Number of loads inserted to the mem dependence unit. (Count)
system.cpu0.MemDepUnit__1.insertedStores            0                       # Number of stores inserted to the mem dependence unit. (Count)
system.cpu0.MemDepUnit__1.conflictingLoads            0                       # Number of conflicting loads. (Count)
system.cpu0.MemDepUnit__1.conflictingStores            0                       # Number of conflicting stores. (Count)
system.cpu0.MemDepUnit__2.insertedLoads             0                       # Number of loads inserted to the mem dependence unit. (Count)
system.cpu0.MemDepUnit__2.insertedStores            0                       # Number of stores inserted to the mem dependence unit. (Count)
system.cpu0.MemDepUnit__2.conflictingLoads            0                       # Number of conflicting loads. (Count)
system.cpu0.MemDepUnit__2.conflictingStores            0                       # Number of conflicting stores. (Count)
system.cpu0.MemDepUnit__3.insertedLoads             0                       # Number of loads inserted to the mem dependence unit. (Count)
system.cpu0.MemDepUnit__3.insertedStores            0                       # Number of stores inserted to the mem dependence unit. (Count)
system.cpu0.MemDepUnit__3.conflictingLoads            0                       # Number of conflicting loads. (Count)
system.cpu0.MemDepUnit__3.conflictingStores            0                       # Number of conflicting stores. (Count)
system.cpu0.branchPred.lookups_0::NoBranch           21      0.00%      0.00% # Number of BP lookups (Count)
system.cpu0.branchPred.lookups_0::Return       177573      7.33%      7.33% # Number of BP lookups (Count)
system.cpu0.branchPred.lookups_0::CallDirect       173893      7.18%     14.50% # Number of BP lookups (Count)
system.cpu0.branchPred.lookups_0::CallIndirect          363      0.01%     14.52% # Number of BP lookups (Count)
system.cpu0.branchPred.lookups_0::DirectCond      1854917     76.54%     91.06% # Number of BP lookups (Count)
system.cpu0.branchPred.lookups_0::DirectUncond       182833      7.54%     98.61% # Number of BP lookups (Count)
system.cpu0.branchPred.lookups_0::IndirectCond            0      0.00%     98.61% # Number of BP lookups (Count)
system.cpu0.branchPred.lookups_0::IndirectUncond        33724      1.39%    100.00% # Number of BP lookups (Count)
system.cpu0.branchPred.lookups_0::total       2423324                       # Number of BP lookups (Count)
system.cpu0.branchPred.squashes_0::NoBranch           21      0.01%      0.01% # Number of branches that got squashed (completely removed) as an earlier branch was mispredicted. (Count)
system.cpu0.branchPred.squashes_0::Return        27410      7.77%      7.77% # Number of branches that got squashed (completely removed) as an earlier branch was mispredicted. (Count)
system.cpu0.branchPred.squashes_0::CallDirect        24033      6.81%     14.58% # Number of branches that got squashed (completely removed) as an earlier branch was mispredicted. (Count)
system.cpu0.branchPred.squashes_0::CallIndirect           55      0.02%     14.60% # Number of branches that got squashed (completely removed) as an earlier branch was mispredicted. (Count)
system.cpu0.branchPred.squashes_0::DirectCond       266747     75.59%     90.19% # Number of branches that got squashed (completely removed) as an earlier branch was mispredicted. (Count)
system.cpu0.branchPred.squashes_0::DirectUncond        33734      9.56%     99.75% # Number of branches that got squashed (completely removed) as an earlier branch was mispredicted. (Count)
system.cpu0.branchPred.squashes_0::IndirectCond            0      0.00%     99.75% # Number of branches that got squashed (completely removed) as an earlier branch was mispredicted. (Count)
system.cpu0.branchPred.squashes_0::IndirectUncond          871      0.25%    100.00% # Number of branches that got squashed (completely removed) as an earlier branch was mispredicted. (Count)
system.cpu0.branchPred.squashes_0::total       352871                       # Number of branches that got squashed (completely removed) as an earlier branch was mispredicted. (Count)
system.cpu0.branchPred.corrected_0::NoBranch            1      0.00%      0.00% # Number of branches that got corrected but not yet commited. Branches get corrected by decode or after execute. Also a branch misprediction can be detected out-of-order. Therefore, a corrected branch might not end up beeing committed in case an even earlier branch was mispredicted (Count)
system.cpu0.branchPred.corrected_0::Return           12      0.02%      0.02% # Number of branches that got corrected but not yet commited. Branches get corrected by decode or after execute. Also a branch misprediction can be detected out-of-order. Therefore, a corrected branch might not end up beeing committed in case an even earlier branch was mispredicted (Count)
system.cpu0.branchPred.corrected_0::CallDirect          673      1.25%      1.27% # Number of branches that got corrected but not yet commited. Branches get corrected by decode or after execute. Also a branch misprediction can be detected out-of-order. Therefore, a corrected branch might not end up beeing committed in case an even earlier branch was mispredicted (Count)
system.cpu0.branchPred.corrected_0::CallIndirect           73      0.14%      1.41% # Number of branches that got corrected but not yet commited. Branches get corrected by decode or after execute. Also a branch misprediction can be detected out-of-order. Therefore, a corrected branch might not end up beeing committed in case an even earlier branch was mispredicted (Count)
system.cpu0.branchPred.corrected_0::DirectCond        46384     86.18%     87.59% # Number of branches that got corrected but not yet commited. Branches get corrected by decode or after execute. Also a branch misprediction can be detected out-of-order. Therefore, a corrected branch might not end up beeing committed in case an even earlier branch was mispredicted (Count)
system.cpu0.branchPred.corrected_0::DirectUncond         6459     12.00%     99.59% # Number of branches that got corrected but not yet commited. Branches get corrected by decode or after execute. Also a branch misprediction can be detected out-of-order. Therefore, a corrected branch might not end up beeing committed in case an even earlier branch was mispredicted (Count)
system.cpu0.branchPred.corrected_0::IndirectCond            0      0.00%     99.59% # Number of branches that got corrected but not yet commited. Branches get corrected by decode or after execute. Also a branch misprediction can be detected out-of-order. Therefore, a corrected branch might not end up beeing committed in case an even earlier branch was mispredicted (Count)
system.cpu0.branchPred.corrected_0::IndirectUncond          220      0.41%    100.00% # Number of branches that got corrected but not yet commited. Branches get corrected by decode or after execute. Also a branch misprediction can be detected out-of-order. Therefore, a corrected branch might not end up beeing committed in case an even earlier branch was mispredicted (Count)
system.cpu0.branchPred.corrected_0::total        53822                       # Number of branches that got corrected but not yet commited. Branches get corrected by decode or after execute. Also a branch misprediction can be detected out-of-order. Therefore, a corrected branch might not end up beeing committed in case an even earlier branch was mispredicted (Count)
system.cpu0.branchPred.earlyResteers_0::NoBranch            0                       # Number of branches that got redirected after decode. (Count)
system.cpu0.branchPred.earlyResteers_0::Return            0                       # Number of branches that got redirected after decode. (Count)
system.cpu0.branchPred.earlyResteers_0::CallDirect            0                       # Number of branches that got redirected after decode. (Count)
system.cpu0.branchPred.earlyResteers_0::CallIndirect            0                       # Number of branches that got redirected after decode. (Count)
system.cpu0.branchPred.earlyResteers_0::DirectCond            0                       # Number of branches that got redirected after decode. (Count)
system.cpu0.branchPred.earlyResteers_0::DirectUncond            0                       # Number of branches that got redirected after decode. (Count)
system.cpu0.branchPred.earlyResteers_0::IndirectCond            0                       # Number of branches that got redirected after decode. (Count)
system.cpu0.branchPred.earlyResteers_0::IndirectUncond            0                       # Number of branches that got redirected after decode. (Count)
system.cpu0.branchPred.earlyResteers_0::total            0                       # Number of branches that got redirected after decode. (Count)
system.cpu0.branchPred.committed_0::NoBranch            0      0.00%      0.00% # Number of branches finally committed  (Count)
system.cpu0.branchPred.committed_0::Return       150163      7.25%      7.25% # Number of branches finally committed  (Count)
system.cpu0.branchPred.committed_0::CallDirect       149860      7.24%     14.49% # Number of branches finally committed  (Count)
system.cpu0.branchPred.committed_0::CallIndirect          308      0.01%     14.51% # Number of branches finally committed  (Count)
system.cpu0.branchPred.committed_0::DirectCond      1588169     76.71%     91.21% # Number of branches finally committed  (Count)
system.cpu0.branchPred.committed_0::DirectUncond       149099      7.20%     98.41% # Number of branches finally committed  (Count)
system.cpu0.branchPred.committed_0::IndirectCond            0      0.00%     98.41% # Number of branches finally committed  (Count)
system.cpu0.branchPred.committed_0::IndirectUncond        32853      1.59%    100.00% # Number of branches finally committed  (Count)
system.cpu0.branchPred.committed_0::total      2070452                       # Number of branches finally committed  (Count)
system.cpu0.branchPred.mispredicted_0::NoBranch            0      0.00%      0.00% # Number of committed branches that were mispredicted. (Count)
system.cpu0.branchPred.mispredicted_0::Return            0      0.00%      0.00% # Number of committed branches that were mispredicted. (Count)
system.cpu0.branchPred.mispredicted_0::CallDirect          402      0.79%      0.79% # Number of committed branches that were mispredicted. (Count)
system.cpu0.branchPred.mispredicted_0::CallIndirect           68      0.13%      0.92% # Number of committed branches that were mispredicted. (Count)
system.cpu0.branchPred.mispredicted_0::DirectCond        44206     86.46%     87.38% # Number of committed branches that were mispredicted. (Count)
system.cpu0.branchPred.mispredicted_0::DirectUncond         6268     12.26%     99.63% # Number of committed branches that were mispredicted. (Count)
system.cpu0.branchPred.mispredicted_0::IndirectCond            0      0.00%     99.63% # Number of committed branches that were mispredicted. (Count)
system.cpu0.branchPred.mispredicted_0::IndirectUncond          187      0.37%    100.00% # Number of committed branches that were mispredicted. (Count)
system.cpu0.branchPred.mispredicted_0::total        51131                       # Number of committed branches that were mispredicted. (Count)
system.cpu0.branchPred.targetProvider_0::NoTarget      1223271     50.48%     50.48% # The component providing the target for taken branches (Count)
system.cpu0.branchPred.targetProvider_0::BTB       988759     40.80%     91.28% # The component providing the target for taken branches (Count)
system.cpu0.branchPred.targetProvider_0::RAS       177573      7.33%     98.61% # The component providing the target for taken branches (Count)
system.cpu0.branchPred.targetProvider_0::Indirect        33721      1.39%    100.00% # The component providing the target for taken branches (Count)
system.cpu0.branchPred.targetProvider_0::total      2423324                       # The component providing the target for taken branches (Count)
system.cpu0.branchPred.targetWrong_0::NoBranch        29100     54.10%     54.10% # Number of branches where the target was incorrect or not available at prediction time. (Count)
system.cpu0.branchPred.targetWrong_0::Return        24578     45.69%     99.79% # Number of branches where the target was incorrect or not available at prediction time. (Count)
system.cpu0.branchPred.targetWrong_0::CallDirect           12      0.02%     99.81% # Number of branches where the target was incorrect or not available at prediction time. (Count)
system.cpu0.branchPred.targetWrong_0::CallIndirect          100      0.19%    100.00% # Number of branches where the target was incorrect or not available at prediction time. (Count)
system.cpu0.branchPred.targetWrong_0::DirectCond            0      0.00%    100.00% # Number of branches where the target was incorrect or not available at prediction time. (Count)
system.cpu0.branchPred.targetWrong_0::DirectUncond            0      0.00%    100.00% # Number of branches where the target was incorrect or not available at prediction time. (Count)
system.cpu0.branchPred.targetWrong_0::IndirectCond            0      0.00%    100.00% # Number of branches where the target was incorrect or not available at prediction time. (Count)
system.cpu0.branchPred.targetWrong_0::IndirectUncond            0      0.00%    100.00% # Number of branches where the target was incorrect or not available at prediction time. (Count)
system.cpu0.branchPred.targetWrong_0::total        53790                       # Number of branches where the target was incorrect or not available at prediction time. (Count)
system.cpu0.branchPred.condPredicted          1854938                       # Number of conditional branches predicted (Count)
system.cpu0.branchPred.condPredictedTaken       661478                       # Number of conditional branches predicted as taken (Count)
system.cpu0.branchPred.condIncorrect            53822                       # Number of conditional branches incorrect (Count)
system.cpu0.branchPred.predTakenBTBMiss         19268                       # Number of branches predicted taken but missed in BTB (Count)
system.cpu0.branchPred.NotTakenMispredicted        41451                       # Number branches predicted 'not taken' but turned out to be taken (Count)
system.cpu0.branchPred.TakenMispredicted        12371                       # Number branches predicted taken but are actually not taken (Count)
system.cpu0.branchPred.BTBLookups             2423324                       # Number of BTB lookups (Count)
system.cpu0.branchPred.BTBUpdates               41145                       # Number of BTB updates (Count)
system.cpu0.branchPred.BTBHits                1318332                       # Number of BTB hits (Count)
system.cpu0.branchPred.BTBHitRatio           0.544018                       # BTB Hit Ratio (Ratio)
system.cpu0.branchPred.BTBMispredicted          19956                       # Number BTB mispredictions. No target found or target wrong (Count)
system.cpu0.branchPred.indirectLookups          34087                       # Number of indirect predictor lookups. (Count)
system.cpu0.branchPred.indirectHits             33721                       # Number of indirect target hits. (Count)
system.cpu0.branchPred.indirectMisses             366                       # Number of indirect misses. (Count)
system.cpu0.branchPred.indirectMispredicted            0                       # Number of mispredicted indirect branches. (Count)
system.cpu0.branchPred.btb.lookups::NoBranch           21      0.00%      0.00% # Number of BTB lookups (Count)
system.cpu0.branchPred.btb.lookups::Return       177573      7.33%      7.33% # Number of BTB lookups (Count)
system.cpu0.branchPred.btb.lookups::CallDirect       173893      7.18%     14.50% # Number of BTB lookups (Count)
system.cpu0.branchPred.btb.lookups::CallIndirect          363      0.01%     14.52% # Number of BTB lookups (Count)
system.cpu0.branchPred.btb.lookups::DirectCond      1854917     76.54%     91.06% # Number of BTB lookups (Count)
system.cpu0.branchPred.btb.lookups::DirectUncond       182833      7.54%     98.61% # Number of BTB lookups (Count)
system.cpu0.branchPred.btb.lookups::IndirectCond            0      0.00%     98.61% # Number of BTB lookups (Count)
system.cpu0.branchPred.btb.lookups::IndirectUncond        33724      1.39%    100.00% # Number of BTB lookups (Count)
system.cpu0.branchPred.btb.lookups::total      2423324                       # Number of BTB lookups (Count)
system.cpu0.branchPred.btb.misses::NoBranch           21      0.00%      0.00% # Number of BTB misses (Count)
system.cpu0.branchPred.btb.misses::Return       177550     16.07%     16.07% # Number of BTB misses (Count)
system.cpu0.branchPred.btb.misses::CallDirect          917      0.08%     16.15% # Number of BTB misses (Count)
system.cpu0.branchPred.btb.misses::CallIndirect          363      0.03%     16.19% # Number of BTB misses (Count)
system.cpu0.branchPred.btb.misses::DirectCond       891946     80.72%     96.91% # Number of BTB misses (Count)
system.cpu0.branchPred.btb.misses::DirectUncond          471      0.04%     96.95% # Number of BTB misses (Count)
system.cpu0.branchPred.btb.misses::IndirectCond            0      0.00%     96.95% # Number of BTB misses (Count)
system.cpu0.branchPred.btb.misses::IndirectUncond        33724      3.05%    100.00% # Number of BTB misses (Count)
system.cpu0.branchPred.btb.misses::total      1104992                       # Number of BTB misses (Count)
system.cpu0.branchPred.btb.updates::NoBranch            0      0.00%      0.00% # Number of BTB updates (Count)
system.cpu0.branchPred.btb.updates::Return            0      0.00%      0.00% # Number of BTB updates (Count)
system.cpu0.branchPred.btb.updates::CallDirect          673      1.64%      1.64% # Number of BTB updates (Count)
system.cpu0.branchPred.btb.updates::CallIndirect            0      0.00%      1.64% # Number of BTB updates (Count)
system.cpu0.branchPred.btb.updates::DirectCond        34013     82.67%     84.30% # Number of BTB updates (Count)
system.cpu0.branchPred.btb.updates::DirectUncond         6459     15.70%    100.00% # Number of BTB updates (Count)
system.cpu0.branchPred.btb.updates::IndirectCond            0      0.00%    100.00% # Number of BTB updates (Count)
system.cpu0.branchPred.btb.updates::IndirectUncond            0      0.00%    100.00% # Number of BTB updates (Count)
system.cpu0.branchPred.btb.updates::total        41145                       # Number of BTB updates (Count)
system.cpu0.branchPred.btb.mispredict::NoBranch            0      0.00%      0.00% # Number of BTB mispredictions. No target found or target wrong. (Count)
system.cpu0.branchPred.btb.mispredict::Return            0      0.00%      0.00% # Number of BTB mispredictions. No target found or target wrong. (Count)
system.cpu0.branchPred.btb.mispredict::CallDirect          673      1.64%      1.64% # Number of BTB mispredictions. No target found or target wrong. (Count)
system.cpu0.branchPred.btb.mispredict::CallIndirect            0      0.00%      1.64% # Number of BTB mispredictions. No target found or target wrong. (Count)
system.cpu0.branchPred.btb.mispredict::DirectCond        34013     82.67%     84.30% # Number of BTB mispredictions. No target found or target wrong. (Count)
system.cpu0.branchPred.btb.mispredict::DirectUncond         6459     15.70%    100.00% # Number of BTB mispredictions. No target found or target wrong. (Count)
system.cpu0.branchPred.btb.mispredict::IndirectCond            0      0.00%    100.00% # Number of BTB mispredictions. No target found or target wrong. (Count)
system.cpu0.branchPred.btb.mispredict::IndirectUncond            0      0.00%    100.00% # Number of BTB mispredictions. No target found or target wrong. (Count)
system.cpu0.branchPred.btb.mispredict::total        41145                       # Number of BTB mispredictions. No target found or target wrong. (Count)
system.cpu0.branchPred.btb.power_state.pwrStateResidencyTicks::UNDEFINED 198635129154                       # Cumulative time (in ticks) in various power states (Tick)
system.cpu0.branchPred.indirectBranchPred.lookups        34087                       # Number of lookups (Count)
system.cpu0.branchPred.indirectBranchPred.hits        33721                       # Number of hits of a tag (Count)
system.cpu0.branchPred.indirectBranchPred.misses          366                       # Number of misses (Count)
system.cpu0.branchPred.indirectBranchPred.targetRecords          293                       # Number of targets that where recorded/installed in the cache (Count)
system.cpu0.branchPred.indirectBranchPred.indirectRecords        34380                       # Number of indirect branches/calls recorded in the indirect hist (Count)
system.cpu0.branchPred.indirectBranchPred.speculativeOverflows            0                       # Number of times more than the allowed capacity for speculative branches/calls where in flight and destroy the path history (Count)
system.cpu0.branchPred.loop_predictor.used            0                       # Number of times the loop predictor is the provider. (Count)
system.cpu0.branchPred.loop_predictor.correct            0                       # Number of times the loop predictor is the provider and the prediction is correct (Count)
system.cpu0.branchPred.loop_predictor.wrong            0                       # Number of times the loop predictor is the provider and the prediction is wrong (Count)
system.cpu0.branchPred.ras.pushes              201666                       # Number of times a PC was pushed onto the RAS (Count)
system.cpu0.branchPred.ras.pops                201661                       # Number of times a PC was poped from the RAS (Count)
system.cpu0.branchPred.ras.squashes             51498                       # Number of times the stack operation was squashed due to wrong speculation. (Count)
system.cpu0.branchPred.ras.used                150163                       # Number of times the RAS is the provider (Count)
system.cpu0.branchPred.ras.correct             150163                       # Number of times the RAS is the provider and the prediction is correct (Count)
system.cpu0.branchPred.ras.incorrect                0                       # Number of times the RAS is the provider and the prediction is wrong (Count)
system.cpu0.branchPred.statistical_corrector.correct      1009327                       # Number of time the SC predictor is the provider and the prediction is correct (Count)
system.cpu0.branchPred.statistical_corrector.wrong       578842                       # Number of time the SC predictor is the provider and the prediction is wrong (Count)
system.cpu0.branchPred.tage.longestMatchProviderCorrect       477098                       # Number of times TAGE Longest Match is the provider and the prediction is correct (Count)
system.cpu0.branchPred.tage.altMatchProviderCorrect        10459                       # Number of times TAGE Alt Match is the provider and the prediction is correct (Count)
system.cpu0.branchPred.tage.bimodalAltMatchProviderCorrect          913                       # Number of times TAGE Alt Match is the bimodal and it is the provider and the prediction is correct (Count)
system.cpu0.branchPred.tage.bimodalProviderCorrect      1074091                       # Number of times there are no hits on the TAGE tables and the bimodal prediction is correct (Count)
system.cpu0.branchPred.tage.longestMatchProviderWrong        10316                       # Number of times TAGE Longest Match is the provider and the prediction is wrong (Count)
system.cpu0.branchPred.tage.altMatchProviderWrong         3994                       # Number of times TAGE Alt Match is the provider and the prediction is wrong (Count)
system.cpu0.branchPred.tage.bimodalAltMatchProviderWrong           95                       # Number of times TAGE Alt Match is the bimodal and it is the provider and the prediction is wrong (Count)
system.cpu0.branchPred.tage.bimodalProviderWrong         1495                       # Number of times there are no hits on the TAGE tables and the bimodal prediction is wrong (Count)
system.cpu0.branchPred.tage.altMatchProviderWouldHaveHit         2097                       # Number of times TAGE Longest Match is the provider, the prediction is wrong and Alt Match prediction was correct (Count)
system.cpu0.branchPred.tage.longestMatchProviderWouldHaveHit         1880                       # Number of times TAGE Alt Match is the provider, the prediction is wrong and Longest Match prediction was correct (Count)
system.cpu0.branchPred.tage.longestMatchProvider::0            0                       # TAGE provider for longest match (Count)
system.cpu0.branchPred.tage.longestMatchProvider::1            0                       # TAGE provider for longest match (Count)
system.cpu0.branchPred.tage.longestMatchProvider::2        47941                       # TAGE provider for longest match (Count)
system.cpu0.branchPred.tage.longestMatchProvider::3            0                       # TAGE provider for longest match (Count)
system.cpu0.branchPred.tage.longestMatchProvider::4            0                       # TAGE provider for longest match (Count)
system.cpu0.branchPred.tage.longestMatchProvider::5            0                       # TAGE provider for longest match (Count)
system.cpu0.branchPred.tage.longestMatchProvider::6       144126                       # TAGE provider for longest match (Count)
system.cpu0.branchPred.tage.longestMatchProvider::7            0                       # TAGE provider for longest match (Count)
system.cpu0.branchPred.tage.longestMatchProvider::8            0                       # TAGE provider for longest match (Count)
system.cpu0.branchPred.tage.longestMatchProvider::9        58939                       # TAGE provider for longest match (Count)
system.cpu0.branchPred.tage.longestMatchProvider::10        34442                       # TAGE provider for longest match (Count)
system.cpu0.branchPred.tage.longestMatchProvider::11        16181                       # TAGE provider for longest match (Count)
system.cpu0.branchPred.tage.longestMatchProvider::12         3462                       # TAGE provider for longest match (Count)
system.cpu0.branchPred.tage.longestMatchProvider::13        33374                       # TAGE provider for longest match (Count)
system.cpu0.branchPred.tage.longestMatchProvider::14        28529                       # TAGE provider for longest match (Count)
system.cpu0.branchPred.tage.longestMatchProvider::15        20211                       # TAGE provider for longest match (Count)
system.cpu0.branchPred.tage.longestMatchProvider::16         8295                       # TAGE provider for longest match (Count)
system.cpu0.branchPred.tage.longestMatchProvider::17        13199                       # TAGE provider for longest match (Count)
system.cpu0.branchPred.tage.longestMatchProvider::18        12958                       # TAGE provider for longest match (Count)
system.cpu0.branchPred.tage.longestMatchProvider::19         5839                       # TAGE provider for longest match (Count)
system.cpu0.branchPred.tage.longestMatchProvider::20         9604                       # TAGE provider for longest match (Count)
system.cpu0.branchPred.tage.longestMatchProvider::21        10988                       # TAGE provider for longest match (Count)
system.cpu0.branchPred.tage.longestMatchProvider::22        10699                       # TAGE provider for longest match (Count)
system.cpu0.branchPred.tage.longestMatchProvider::23            0                       # TAGE provider for longest match (Count)
system.cpu0.branchPred.tage.longestMatchProvider::24        20550                       # TAGE provider for longest match (Count)
system.cpu0.branchPred.tage.longestMatchProvider::25            0                       # TAGE provider for longest match (Count)
system.cpu0.branchPred.tage.longestMatchProvider::26        10150                       # TAGE provider for longest match (Count)
system.cpu0.branchPred.tage.longestMatchProvider::27            0                       # TAGE provider for longest match (Count)
system.cpu0.branchPred.tage.longestMatchProvider::28         5657                       # TAGE provider for longest match (Count)
system.cpu0.branchPred.tage.longestMatchProvider::29            0                       # TAGE provider for longest match (Count)
system.cpu0.branchPred.tage.longestMatchProvider::30            0                       # TAGE provider for longest match (Count)
system.cpu0.branchPred.tage.longestMatchProvider::31            0                       # TAGE provider for longest match (Count)
system.cpu0.branchPred.tage.longestMatchProvider::32         4508                       # TAGE provider for longest match (Count)
system.cpu0.branchPred.tage.longestMatchProvider::33            0                       # TAGE provider for longest match (Count)
system.cpu0.branchPred.tage.longestMatchProvider::34            0                       # TAGE provider for longest match (Count)
system.cpu0.branchPred.tage.longestMatchProvider::35            0                       # TAGE provider for longest match (Count)
system.cpu0.branchPred.tage.longestMatchProvider::36         2215                       # TAGE provider for longest match (Count)
system.cpu0.branchPred.tage.altMatchProvider::0        64382                       # TAGE provider for alt match (Count)
system.cpu0.branchPred.tage.altMatchProvider::1            0                       # TAGE provider for alt match (Count)
system.cpu0.branchPred.tage.altMatchProvider::2       134121                       # TAGE provider for alt match (Count)
system.cpu0.branchPred.tage.altMatchProvider::3            0                       # TAGE provider for alt match (Count)
system.cpu0.branchPred.tage.altMatchProvider::4            0                       # TAGE provider for alt match (Count)
system.cpu0.branchPred.tage.altMatchProvider::5            0                       # TAGE provider for alt match (Count)
system.cpu0.branchPred.tage.altMatchProvider::6        90747                       # TAGE provider for alt match (Count)
system.cpu0.branchPred.tage.altMatchProvider::7            0                       # TAGE provider for alt match (Count)
system.cpu0.branchPred.tage.altMatchProvider::8            0                       # TAGE provider for alt match (Count)
system.cpu0.branchPred.tage.altMatchProvider::9        32116                       # TAGE provider for alt match (Count)
system.cpu0.branchPred.tage.altMatchProvider::10        32588                       # TAGE provider for alt match (Count)
system.cpu0.branchPred.tage.altMatchProvider::11        17419                       # TAGE provider for alt match (Count)
system.cpu0.branchPred.tage.altMatchProvider::12        12455                       # TAGE provider for alt match (Count)
system.cpu0.branchPred.tage.altMatchProvider::13        19290                       # TAGE provider for alt match (Count)
system.cpu0.branchPred.tage.altMatchProvider::14        13933                       # TAGE provider for alt match (Count)
system.cpu0.branchPred.tage.altMatchProvider::15         9451                       # TAGE provider for alt match (Count)
system.cpu0.branchPred.tage.altMatchProvider::16         7824                       # TAGE provider for alt match (Count)
system.cpu0.branchPred.tage.altMatchProvider::17         6060                       # TAGE provider for alt match (Count)
system.cpu0.branchPred.tage.altMatchProvider::18         8133                       # TAGE provider for alt match (Count)
system.cpu0.branchPred.tage.altMatchProvider::19         7709                       # TAGE provider for alt match (Count)
system.cpu0.branchPred.tage.altMatchProvider::20        11657                       # TAGE provider for alt match (Count)
system.cpu0.branchPred.tage.altMatchProvider::21         8216                       # TAGE provider for alt match (Count)
system.cpu0.branchPred.tage.altMatchProvider::22         8241                       # TAGE provider for alt match (Count)
system.cpu0.branchPred.tage.altMatchProvider::23            0                       # TAGE provider for alt match (Count)
system.cpu0.branchPred.tage.altMatchProvider::24         8991                       # TAGE provider for alt match (Count)
system.cpu0.branchPred.tage.altMatchProvider::25            0                       # TAGE provider for alt match (Count)
system.cpu0.branchPred.tage.altMatchProvider::26         2135                       # TAGE provider for alt match (Count)
system.cpu0.branchPred.tage.altMatchProvider::27            0                       # TAGE provider for alt match (Count)
system.cpu0.branchPred.tage.altMatchProvider::28         4296                       # TAGE provider for alt match (Count)
system.cpu0.branchPred.tage.altMatchProvider::29            0                       # TAGE provider for alt match (Count)
system.cpu0.branchPred.tage.altMatchProvider::30            0                       # TAGE provider for alt match (Count)
system.cpu0.branchPred.tage.altMatchProvider::31            0                       # TAGE provider for alt match (Count)
system.cpu0.branchPred.tage.altMatchProvider::32         2103                       # TAGE provider for alt match (Count)
system.cpu0.branchPred.tage.altMatchProvider::33            0                       # TAGE provider for alt match (Count)
system.cpu0.branchPred.tage.altMatchProvider::34            0                       # TAGE provider for alt match (Count)
system.cpu0.branchPred.tage.altMatchProvider::35            0                       # TAGE provider for alt match (Count)
system.cpu0.branchPred.tage.altMatchProvider::36            0                       # TAGE provider for alt match (Count)
system.cpu0.clk_domain.clock                      294                       # Clock period in ticks (Tick)
system.cpu0.commit.commitSquashedInsts        2608531                       # The number of squashed insts skipped by commit (Count)
system.cpu0.commit.commitNonSpecStalls          35913                       # The number of times commit has been forced to stall to communicate backwards (Count)
system.cpu0.commit.branchMispredicts            40671                       # The number of times a branch was mispredicted (Count)
system.cpu0.commit.numCommittedDist::samples     11194852                       # Number of insts commited each cycle (Count)
system.cpu0.commit.numCommittedDist::mean     2.147294                       # Number of insts commited each cycle (Count)
system.cpu0.commit.numCommittedDist::stdev     2.535690                       # Number of insts commited each cycle (Count)
system.cpu0.commit.numCommittedDist::underflows            0      0.00%      0.00% # Number of insts commited each cycle (Count)
system.cpu0.commit.numCommittedDist::0        3637455     32.49%     32.49% # Number of insts commited each cycle (Count)
system.cpu0.commit.numCommittedDist::1        3112388     27.80%     60.29% # Number of insts commited each cycle (Count)
system.cpu0.commit.numCommittedDist::2         647734      5.79%     66.08% # Number of insts commited each cycle (Count)
system.cpu0.commit.numCommittedDist::3        1327102     11.85%     77.93% # Number of insts commited each cycle (Count)
system.cpu0.commit.numCommittedDist::4         526199      4.70%     82.64% # Number of insts commited each cycle (Count)
system.cpu0.commit.numCommittedDist::5         450768      4.03%     86.66% # Number of insts commited each cycle (Count)
system.cpu0.commit.numCommittedDist::6         259569      2.32%     88.98% # Number of insts commited each cycle (Count)
system.cpu0.commit.numCommittedDist::7         135672      1.21%     90.19% # Number of insts commited each cycle (Count)
system.cpu0.commit.numCommittedDist::8        1097965      9.81%    100.00% # Number of insts commited each cycle (Count)
system.cpu0.commit.numCommittedDist::overflows            0      0.00%    100.00% # Number of insts commited each cycle (Count)
system.cpu0.commit.numCommittedDist::min_value            0                       # Number of insts commited each cycle (Count)
system.cpu0.commit.numCommittedDist::max_value            8                       # Number of insts commited each cycle (Count)
system.cpu0.commit.numCommittedDist::total     11194852                       # Number of insts commited each cycle (Count)
system.cpu0.commit.amos                             0                       # Number of atomic instructions committed (Count)
system.cpu0.commit.membars                      23942                       # Number of memory barriers committed (Count)
system.cpu0.commit.functionCalls               150168                       # Number of function calls committed. (Count)
system.cpu0.commit.committedInstType_0::No_OpClass       135033      0.56%      0.56% # Class of committed instruction (Count)
system.cpu0.commit.committedInstType_0::IntAlu     18363519     76.39%     76.95% # Class of committed instruction (Count)
system.cpu0.commit.committedInstType_0::IntMult       182334      0.76%     77.71% # Class of committed instruction (Count)
system.cpu0.commit.committedInstType_0::IntDiv      1200129      4.99%     82.70% # Class of committed instruction (Count)
system.cpu0.commit.committedInstType_0::FloatAdd        12418      0.05%     82.76% # Class of committed instruction (Count)
system.cpu0.commit.committedInstType_0::FloatCmp            0      0.00%     82.76% # Class of committed instruction (Count)
system.cpu0.commit.committedInstType_0::FloatCvt            0      0.00%     82.76% # Class of committed instruction (Count)
system.cpu0.commit.committedInstType_0::FloatMult            0      0.00%     82.76% # Class of committed instruction (Count)
system.cpu0.commit.committedInstType_0::FloatMultAcc            0      0.00%     82.76% # Class of committed instruction (Count)
system.cpu0.commit.committedInstType_0::FloatDiv            0      0.00%     82.76% # Class of committed instruction (Count)
system.cpu0.commit.committedInstType_0::FloatMisc            0      0.00%     82.76% # Class of committed instruction (Count)
system.cpu0.commit.committedInstType_0::FloatSqrt            0      0.00%     82.76% # Class of committed instruction (Count)
system.cpu0.commit.committedInstType_0::SimdAdd           10      0.00%     82.76% # Class of committed instruction (Count)
system.cpu0.commit.committedInstType_0::SimdAddAcc            0      0.00%     82.76% # Class of committed instruction (Count)
system.cpu0.commit.committedInstType_0::SimdAlu        12011      0.05%     82.81% # Class of committed instruction (Count)
system.cpu0.commit.committedInstType_0::SimdCmp            0      0.00%     82.81% # Class of committed instruction (Count)
system.cpu0.commit.committedInstType_0::SimdCvt           10      0.00%     82.81% # Class of committed instruction (Count)
system.cpu0.commit.committedInstType_0::SimdMisc        26911      0.11%     82.92% # Class of committed instruction (Count)
system.cpu0.commit.committedInstType_0::SimdMult            0      0.00%     82.92% # Class of committed instruction (Count)
system.cpu0.commit.committedInstType_0::SimdMultAcc            0      0.00%     82.92% # Class of committed instruction (Count)
system.cpu0.commit.committedInstType_0::SimdMatMultAcc            0      0.00%     82.92% # Class of committed instruction (Count)
system.cpu0.commit.committedInstType_0::SimdShift            3      0.00%     82.92% # Class of committed instruction (Count)
system.cpu0.commit.committedInstType_0::SimdShiftAcc            0      0.00%     82.92% # Class of committed instruction (Count)
system.cpu0.commit.committedInstType_0::SimdDiv            0      0.00%     82.92% # Class of committed instruction (Count)
system.cpu0.commit.committedInstType_0::SimdSqrt            0      0.00%     82.92% # Class of committed instruction (Count)
system.cpu0.commit.committedInstType_0::SimdFloatAdd           45      0.00%     82.92% # Class of committed instruction (Count)
system.cpu0.commit.committedInstType_0::SimdFloatAlu            0      0.00%     82.92% # Class of committed instruction (Count)
system.cpu0.commit.committedInstType_0::SimdFloatCmp            0      0.00%     82.92% # Class of committed instruction (Count)
system.cpu0.commit.committedInstType_0::SimdFloatCvt           14      0.00%     82.92% # Class of committed instruction (Count)
system.cpu0.commit.committedInstType_0::SimdFloatDiv            2      0.00%     82.92% # Class of committed instruction (Count)
system.cpu0.commit.committedInstType_0::SimdFloatMisc            0      0.00%     82.92% # Class of committed instruction (Count)
system.cpu0.commit.committedInstType_0::SimdFloatMult           24      0.00%     82.92% # Class of committed instruction (Count)
system.cpu0.commit.committedInstType_0::SimdFloatMultAcc            0      0.00%     82.92% # Class of committed instruction (Count)
system.cpu0.commit.committedInstType_0::SimdFloatMatMultAcc            0      0.00%     82.92% # Class of committed instruction (Count)
system.cpu0.commit.committedInstType_0::SimdFloatSqrt            0      0.00%     82.92% # Class of committed instruction (Count)
system.cpu0.commit.committedInstType_0::SimdReduceAdd            0      0.00%     82.92% # Class of committed instruction (Count)
system.cpu0.commit.committedInstType_0::SimdReduceAlu            0      0.00%     82.92% # Class of committed instruction (Count)
system.cpu0.commit.committedInstType_0::SimdReduceCmp            0      0.00%     82.92% # Class of committed instruction (Count)
system.cpu0.commit.committedInstType_0::SimdFloatReduceAdd            0      0.00%     82.92% # Class of committed instruction (Count)
system.cpu0.commit.committedInstType_0::SimdFloatReduceCmp            0      0.00%     82.92% # Class of committed instruction (Count)
system.cpu0.commit.committedInstType_0::SimdAes            0      0.00%     82.92% # Class of committed instruction (Count)
system.cpu0.commit.committedInstType_0::SimdAesMix            0      0.00%     82.92% # Class of committed instruction (Count)
system.cpu0.commit.committedInstType_0::SimdSha1Hash            0      0.00%     82.92% # Class of committed instruction (Count)
system.cpu0.commit.committedInstType_0::SimdSha1Hash2            0      0.00%     82.92% # Class of committed instruction (Count)
system.cpu0.commit.committedInstType_0::SimdSha256Hash            0      0.00%     82.92% # Class of committed instruction (Count)
system.cpu0.commit.committedInstType_0::SimdSha256Hash2            0      0.00%     82.92% # Class of committed instruction (Count)
system.cpu0.commit.committedInstType_0::SimdShaSigma2            0      0.00%     82.92% # Class of committed instruction (Count)
system.cpu0.commit.committedInstType_0::SimdShaSigma3            0      0.00%     82.92% # Class of committed instruction (Count)
system.cpu0.commit.committedInstType_0::SimdPredAlu            0      0.00%     82.92% # Class of committed instruction (Count)
system.cpu0.commit.committedInstType_0::Matrix            0      0.00%     82.92% # Class of committed instruction (Count)
system.cpu0.commit.committedInstType_0::MatrixMov            0      0.00%     82.92% # Class of committed instruction (Count)
system.cpu0.commit.committedInstType_0::MatrixOP            0      0.00%     82.92% # Class of committed instruction (Count)
system.cpu0.commit.committedInstType_0::MemRead      2320555      9.65%     92.57% # Class of committed instruction (Count)
system.cpu0.commit.committedInstType_0::MemWrite      1191049      4.95%     97.53% # Class of committed instruction (Count)
system.cpu0.commit.committedInstType_0::FloatMemRead       287573      1.20%     98.72% # Class of committed instruction (Count)
system.cpu0.commit.committedInstType_0::FloatMemWrite       306996      1.28%    100.00% # Class of committed instruction (Count)
system.cpu0.commit.committedInstType_0::IprAccess            0      0.00%    100.00% # Class of committed instruction (Count)
system.cpu0.commit.committedInstType_0::InstPrefetch            0      0.00%    100.00% # Class of committed instruction (Count)
system.cpu0.commit.committedInstType_0::SimdUnitStrideLoad            0      0.00%    100.00% # Class of committed instruction (Count)
system.cpu0.commit.committedInstType_0::SimdUnitStrideStore            0      0.00%    100.00% # Class of committed instruction (Count)
system.cpu0.commit.committedInstType_0::SimdUnitStrideMaskLoad            0      0.00%    100.00% # Class of committed instruction (Count)
system.cpu0.commit.committedInstType_0::SimdUnitStrideMaskStore            0      0.00%    100.00% # Class of committed instruction (Count)
system.cpu0.commit.committedInstType_0::SimdStridedLoad            0      0.00%    100.00% # Class of committed instruction (Count)
system.cpu0.commit.committedInstType_0::SimdStridedStore            0      0.00%    100.00% # Class of committed instruction (Count)
system.cpu0.commit.committedInstType_0::SimdIndexedLoad            0      0.00%    100.00% # Class of committed instruction (Count)
system.cpu0.commit.committedInstType_0::SimdIndexedStore            0      0.00%    100.00% # Class of committed instruction (Count)
system.cpu0.commit.committedInstType_0::SimdWholeRegisterLoad            0      0.00%    100.00% # Class of committed instruction (Count)
system.cpu0.commit.committedInstType_0::SimdWholeRegisterStore            0      0.00%    100.00% # Class of committed instruction (Count)
system.cpu0.commit.committedInstType_0::SimdUnitStrideFaultOnlyFirstLoad            0      0.00%    100.00% # Class of committed instruction (Count)
system.cpu0.commit.committedInstType_0::SimdUnitStrideSegmentedLoad            0      0.00%    100.00% # Class of committed instruction (Count)
system.cpu0.commit.committedInstType_0::SimdUnitStrideSegmentedStore            0      0.00%    100.00% # Class of committed instruction (Count)
system.cpu0.commit.committedInstType_0::SimdExt            0      0.00%    100.00% # Class of committed instruction (Count)
system.cpu0.commit.committedInstType_0::SimdFloatExt            0      0.00%    100.00% # Class of committed instruction (Count)
system.cpu0.commit.committedInstType_0::SimdConfig            0      0.00%    100.00% # Class of committed instruction (Count)
system.cpu0.commit.committedInstType_0::total     24038636                       # Class of committed instruction (Count)
system.cpu0.commit.commitEligibleSamples      1097965                       # number cycles where commit BW limit reached (Cycle)
system.cpu0.commitStats0.numInsts            10135803                       # Number of instructions committed (thread level) (Count)
system.cpu0.commitStats0.numOps              24038636                       # Number of ops (including micro ops) committed (thread level) (Count)
system.cpu0.commitStats0.numInstsNotNOP      10135803                       # Number of instructions committed excluding NOPs or prefetches (Count)
system.cpu0.commitStats0.numOpsNotNOP        24038636                       # Number of Ops (including micro ops) Simulated (Count)
system.cpu0.commitStats0.cpi                 1.151804                       # CPI: cycles per instruction (thread level) ((Cycle/Count))
system.cpu0.commitStats0.ipc                 0.868203                       # IPC: instructions per cycle (thread level) ((Count/Cycle))
system.cpu0.commitStats0.numMemRefs           4106173                       # Number of memory references committed (Count)
system.cpu0.commitStats0.numFpInsts            656353                       # Number of float instructions (Count)
system.cpu0.commitStats0.numIntInsts         23658232                       # Number of integer instructions (Count)
system.cpu0.commitStats0.numLoadInsts         2608128                       # Number of load instructions (Count)
system.cpu0.commitStats0.numStoreInsts        1498045                       # Number of store instructions (Count)
system.cpu0.commitStats0.numVecInsts                0                       # Number of vector instructions (Count)
system.cpu0.commitStats0.committedInstType::No_OpClass       135033      0.56%      0.56% # Class of committed instruction. (Count)
system.cpu0.commitStats0.committedInstType::IntAlu     18363519     76.39%     76.95% # Class of committed instruction. (Count)
system.cpu0.commitStats0.committedInstType::IntMult       182334      0.76%     77.71% # Class of committed instruction. (Count)
system.cpu0.commitStats0.committedInstType::IntDiv      1200129      4.99%     82.70% # Class of committed instruction. (Count)
system.cpu0.commitStats0.committedInstType::FloatAdd        12418      0.05%     82.76% # Class of committed instruction. (Count)
system.cpu0.commitStats0.committedInstType::FloatCmp            0      0.00%     82.76% # Class of committed instruction. (Count)
system.cpu0.commitStats0.committedInstType::FloatCvt            0      0.00%     82.76% # Class of committed instruction. (Count)
system.cpu0.commitStats0.committedInstType::FloatMult            0      0.00%     82.76% # Class of committed instruction. (Count)
system.cpu0.commitStats0.committedInstType::FloatMultAcc            0      0.00%     82.76% # Class of committed instruction. (Count)
system.cpu0.commitStats0.committedInstType::FloatDiv            0      0.00%     82.76% # Class of committed instruction. (Count)
system.cpu0.commitStats0.committedInstType::FloatMisc            0      0.00%     82.76% # Class of committed instruction. (Count)
system.cpu0.commitStats0.committedInstType::FloatSqrt            0      0.00%     82.76% # Class of committed instruction. (Count)
system.cpu0.commitStats0.committedInstType::SimdAdd           10      0.00%     82.76% # Class of committed instruction. (Count)
system.cpu0.commitStats0.committedInstType::SimdAddAcc            0      0.00%     82.76% # Class of committed instruction. (Count)
system.cpu0.commitStats0.committedInstType::SimdAlu        12011      0.05%     82.81% # Class of committed instruction. (Count)
system.cpu0.commitStats0.committedInstType::SimdCmp            0      0.00%     82.81% # Class of committed instruction. (Count)
system.cpu0.commitStats0.committedInstType::SimdCvt           10      0.00%     82.81% # Class of committed instruction. (Count)
system.cpu0.commitStats0.committedInstType::SimdMisc        26911      0.11%     82.92% # Class of committed instruction. (Count)
system.cpu0.commitStats0.committedInstType::SimdMult            0      0.00%     82.92% # Class of committed instruction. (Count)
system.cpu0.commitStats0.committedInstType::SimdMultAcc            0      0.00%     82.92% # Class of committed instruction. (Count)
system.cpu0.commitStats0.committedInstType::SimdMatMultAcc            0      0.00%     82.92% # Class of committed instruction. (Count)
[...]
system.ruby.network.routers4.throttle00.avg_bandwidth         0.00                       # Average bandwidth (GB/s) (Ratio)
system.ruby.network.routers4.throttle00.avg_useful_bandwidth         0.00                       # Average usefull (only data) bandwidth (GB/s) (Ratio)
system.ruby.network.routers4.throttle01.acc_link_utilization            0                       # Accumulated link utilization (Count)
system.ruby.network.routers4.throttle01.link_utilization            0                       # Average link utilization (Ratio)
system.ruby.network.routers4.throttle01.total_msg_count            0                       # Total number of messages forwarded by this switch (Count)
system.ruby.network.routers4.throttle01.total_msg_bytes            0                       # Total number of bytes forwarded by this switch (Byte)
system.ruby.network.routers4.throttle01.total_data_msg_bytes            0                       # Total number of data bytes forwarded by this switch (Byte)
system.ruby.network.routers4.throttle01.total_msg_wait_time            0                       # Total time spend forwarding messages (Tick)
system.ruby.network.routers4.throttle01.total_stall_cy            0                       # Total time spent blocked on any output link (Cycle)
system.ruby.network.routers4.throttle01.total_bw_sat_cy            0                       # Total time bandwidth was saturated on any output link (Cycle)
system.ruby.network.routers4.throttle01.avg_msg_wait_time          nan                       # Average time a message took to be forwarded (Ratio)
system.ruby.network.routers4.throttle01.avg_bandwidth         0.00                       # Average bandwidth (GB/s) (Ratio)
system.ruby.network.routers4.throttle01.avg_useful_bandwidth         0.00                       # Average usefull (only data) bandwidth (GB/s) (Ratio)
system.ruby.network.routers5.percent_links_utilized            0                       (Unspecified)
system.ruby.network.routers5.power_state.pwrStateResidencyTicks::UNDEFINED 198635129154                       # Cumulative time (in ticks) in various power states (Tick)
system.ruby.network.routers5.throttle00.acc_link_utilization            0                       # Accumulated link utilization (Count)
system.ruby.network.routers5.throttle00.link_utilization            0                       # Average link utilization (Ratio)
system.ruby.network.routers5.throttle00.total_msg_count            0                       # Total number of messages forwarded by this switch (Count)
system.ruby.network.routers5.throttle00.total_msg_bytes            0                       # Total number of bytes forwarded by this switch (Byte)
system.ruby.network.routers5.throttle00.total_data_msg_bytes            0                       # Total number of data bytes forwarded by this switch (Byte)
system.ruby.network.routers5.throttle00.total_msg_wait_time            0                       # Total time spend forwarding messages (Tick)
system.ruby.network.routers5.throttle00.total_stall_cy            0                       # Total time spent blocked on any output link (Cycle)
system.ruby.network.routers5.throttle00.total_bw_sat_cy            0                       # Total time bandwidth was saturated on any output link (Cycle)
system.ruby.network.routers5.throttle00.avg_msg_wait_time          nan                       # Average time a message took to be forwarded (Ratio)
system.ruby.network.routers5.throttle00.avg_bandwidth         0.00                       # Average bandwidth (GB/s) (Ratio)
system.ruby.network.routers5.throttle00.avg_useful_bandwidth         0.00                       # Average usefull (only data) bandwidth (GB/s) (Ratio)
system.ruby.network.routers5.throttle01.acc_link_utilization            0                       # Accumulated link utilization (Count)
system.ruby.network.routers5.throttle01.link_utilization            0                       # Average link utilization (Ratio)
system.ruby.network.routers5.throttle01.total_msg_count            0                       # Total number of messages forwarded by this switch (Count)
system.ruby.network.routers5.throttle01.total_msg_bytes            0                       # Total number of bytes forwarded by this switch (Byte)
system.ruby.network.routers5.throttle01.total_data_msg_bytes            0                       # Total number of data bytes forwarded by this switch (Byte)
system.ruby.network.routers5.throttle01.total_msg_wait_time            0                       # Total time spend forwarding messages (Tick)
system.ruby.network.routers5.throttle01.total_stall_cy            0                       # Total time spent blocked on any output link (Cycle)
system.ruby.network.routers5.throttle01.total_bw_sat_cy            0                       # Total time bandwidth was saturated on any output link (Cycle)
system.ruby.network.routers5.throttle01.avg_msg_wait_time          nan                       # Average time a message took to be forwarded (Ratio)
system.ruby.network.routers5.throttle01.avg_bandwidth         0.00                       # Average bandwidth (GB/s) (Ratio)
system.ruby.network.routers5.throttle01.avg_useful_bandwidth         0.00                       # Average usefull (only data) bandwidth (GB/s) (Ratio)
system.ruby.network.routers6.percent_links_utilized            0                       (Unspecified)
system.ruby.network.routers6.power_state.pwrStateResidencyTicks::UNDEFINED 198635129154                       # Cumulative time (in ticks) in various power states (Tick)
system.ruby.network.routers6.throttle00.acc_link_utilization            0                       # Accumulated link utilization (Count)
system.ruby.network.routers6.throttle00.link_utilization            0                       # Average link utilization (Ratio)
system.ruby.network.routers6.throttle00.total_msg_count            0                       # Total number of messages forwarded by this switch (Count)
system.ruby.network.routers6.throttle00.total_msg_bytes            0                       # Total number of bytes forwarded by this switch (Byte)
system.ruby.network.routers6.throttle00.total_data_msg_bytes            0                       # Total number of data bytes forwarded by this switch (Byte)
system.ruby.network.routers6.throttle00.total_msg_wait_time            0                       # Total time spend forwarding messages (Tick)
system.ruby.network.routers6.throttle00.total_stall_cy            0                       # Total time spent blocked on any output link (Cycle)
system.ruby.network.routers6.throttle00.total_bw_sat_cy            0                       # Total time bandwidth was saturated on any output link (Cycle)
system.ruby.network.routers6.throttle00.avg_msg_wait_time          nan                       # Average time a message took to be forwarded (Ratio)
system.ruby.network.routers6.throttle00.avg_bandwidth         0.00                       # Average bandwidth (GB/s) (Ratio)
system.ruby.network.routers6.throttle00.avg_useful_bandwidth         0.00                       # Average usefull (only data) bandwidth (GB/s) (Ratio)
system.ruby.network.routers6.throttle01.acc_link_utilization            0                       # Accumulated link utilization (Count)
system.ruby.network.routers6.throttle01.link_utilization            0                       # Average link utilization (Ratio)
system.ruby.network.routers6.throttle01.total_msg_count            0                       # Total number of messages forwarded by this switch (Count)
system.ruby.network.routers6.throttle01.total_msg_bytes            0                       # Total number of bytes forwarded by this switch (Byte)
system.ruby.network.routers6.throttle01.total_data_msg_bytes            0                       # Total number of data bytes forwarded by this switch (Byte)
system.ruby.network.routers6.throttle01.total_msg_wait_time            0                       # Total time spend forwarding messages (Tick)
system.ruby.network.routers6.throttle01.total_stall_cy            0                       # Total time spent blocked on any output link (Cycle)
system.ruby.network.routers6.throttle01.total_bw_sat_cy            0                       # Total time bandwidth was saturated on any output link (Cycle)
system.ruby.network.routers6.throttle01.avg_msg_wait_time          nan                       # Average time a message took to be forwarded (Ratio)
system.ruby.network.routers6.throttle01.avg_bandwidth         0.00                       # Average bandwidth (GB/s) (Ratio)
system.ruby.network.routers6.throttle01.avg_useful_bandwidth         0.00                       # Average usefull (only data) bandwidth (GB/s) (Ratio)
system.ruby.network.routers7.percent_links_utilized            0                       (Unspecified)
system.ruby.network.routers7.power_state.pwrStateResidencyTicks::UNDEFINED 198635129154                       # Cumulative time (in ticks) in various power states (Tick)
system.ruby.network.routers7.throttle00.acc_link_utilization            0                       # Accumulated link utilization (Count)
system.ruby.network.routers7.throttle00.link_utilization            0                       # Average link utilization (Ratio)
system.ruby.network.routers7.throttle00.total_msg_count            0                       # Total number of messages forwarded by this switch (Count)
system.ruby.network.routers7.throttle00.total_msg_bytes            0                       # Total number of bytes forwarded by this switch (Byte)
system.ruby.network.routers7.throttle00.total_data_msg_bytes            0                       # Total number of data bytes forwarded by this switch (Byte)
system.ruby.network.routers7.throttle00.total_msg_wait_time            0                       # Total time spend forwarding messages (Tick)
system.ruby.network.routers7.throttle00.total_stall_cy            0                       # Total time spent blocked on any output link (Cycle)
system.ruby.network.routers7.throttle00.total_bw_sat_cy            0                       # Total time bandwidth was saturated on any output link (Cycle)
system.ruby.network.routers7.throttle00.avg_msg_wait_time          nan                       # Average time a message took to be forwarded (Ratio)
system.ruby.network.routers7.throttle00.avg_bandwidth         0.00                       # Average bandwidth (GB/s) (Ratio)
system.ruby.network.routers7.throttle00.avg_useful_bandwidth         0.00                       # Average usefull (only data) bandwidth (GB/s) (Ratio)
system.ruby.network.routers7.throttle01.acc_link_utilization            0                       # Accumulated link utilization (Count)
system.ruby.network.routers7.throttle01.link_utilization            0                       # Average link utilization (Ratio)
system.ruby.network.routers7.throttle01.total_msg_count            0                       # Total number of messages forwarded by this switch (Count)
system.ruby.network.routers7.throttle01.total_msg_bytes            0                       # Total number of bytes forwarded by this switch (Byte)
system.ruby.network.routers7.throttle01.total_data_msg_bytes            0                       # Total number of data bytes forwarded by this switch (Byte)
system.ruby.network.routers7.throttle01.total_msg_wait_time            0                       # Total time spend forwarding messages (Tick)
system.ruby.network.routers7.throttle01.total_stall_cy            0                       # Total time spent blocked on any output link (Cycle)
system.ruby.network.routers7.throttle01.total_bw_sat_cy            0                       # Total time bandwidth was saturated on any output link (Cycle)
system.ruby.network.routers7.throttle01.avg_msg_wait_time          nan                       # Average time a message took to be forwarded (Ratio)
system.ruby.network.routers7.throttle01.avg_bandwidth         0.00                       # Average bandwidth (GB/s) (Ratio)
system.ruby.network.routers7.throttle01.avg_useful_bandwidth         0.00                       # Average usefull (only data) bandwidth (GB/s) (Ratio)
system.ruby.network.routers8.percent_links_utilized            0                       (Unspecified)
system.ruby.network.routers8.power_state.pwrStateResidencyTicks::UNDEFINED 198635129154                       # Cumulative time (in ticks) in various power states (Tick)
system.ruby.network.routers8.throttle00.acc_link_utilization            0                       # Accumulated link utilization (Count)
system.ruby.network.routers8.throttle00.link_utilization            0                       # Average link utilization (Ratio)
system.ruby.network.routers8.throttle00.total_msg_count            0                       # Total number of messages forwarded by this switch (Count)
system.ruby.network.routers8.throttle00.total_msg_bytes            0                       # Total number of bytes forwarded by this switch (Byte)
system.ruby.network.routers8.throttle00.total_data_msg_bytes            0                       # Total number of data bytes forwarded by this switch (Byte)
system.ruby.network.routers8.throttle00.total_msg_wait_time            0                       # Total time spend forwarding messages (Tick)
system.ruby.network.routers8.throttle00.total_stall_cy            0                       # Total time spent blocked on any output link (Cycle)
system.ruby.network.routers8.throttle00.total_bw_sat_cy            0                       # Total time bandwidth was saturated on any output link (Cycle)
system.ruby.network.routers8.throttle00.avg_msg_wait_time          nan                       # Average time a message took to be forwarded (Ratio)
system.ruby.network.routers8.throttle00.avg_bandwidth         0.00                       # Average bandwidth (GB/s) (Ratio)
system.ruby.network.routers8.throttle00.avg_useful_bandwidth         0.00                       # Average usefull (only data) bandwidth (GB/s) (Ratio)
system.ruby.network.routers8.throttle01.acc_link_utilization            0                       # Accumulated link utilization (Count)
system.ruby.network.routers8.throttle01.link_utilization            0                       # Average link utilization (Ratio)
system.ruby.network.routers8.throttle01.total_msg_count            0                       # Total number of messages forwarded by this switch (Count)
system.ruby.network.routers8.throttle01.total_msg_bytes            0                       # Total number of bytes forwarded by this switch (Byte)
system.ruby.network.routers8.throttle01.total_data_msg_bytes            0                       # Total number of data bytes forwarded by this switch (Byte)
system.ruby.network.routers8.throttle01.total_msg_wait_time            0                       # Total time spend forwarding messages (Tick)
system.ruby.network.routers8.throttle01.total_stall_cy            0                       # Total time spent blocked on any output link (Cycle)
system.ruby.network.routers8.throttle01.total_bw_sat_cy            0                       # Total time bandwidth was saturated on any output link (Cycle)
system.ruby.network.routers8.throttle01.avg_msg_wait_time          nan                       # Average time a message took to be forwarded (Ratio)
system.ruby.network.routers8.throttle01.avg_bandwidth         0.00                       # Average bandwidth (GB/s) (Ratio)
system.ruby.network.routers8.throttle01.avg_useful_bandwidth         0.00                       # Average usefull (only data) bandwidth (GB/s) (Ratio)
system.ruby.network.routers9.percent_links_utilized            0                       (Unspecified)
system.ruby.network.routers9.power_state.pwrStateResidencyTicks::UNDEFINED 198635129154                       # Cumulative time (in ticks) in various power states (Tick)
system.ruby.network.routers9.throttle00.acc_link_utilization            0                       # Accumulated link utilization (Count)
system.ruby.network.routers9.throttle00.link_utilization            0                       # Average link utilization (Ratio)
system.ruby.network.routers9.throttle00.total_msg_count            0                       # Total number of messages forwarded by this switch (Count)
system.ruby.network.routers9.throttle00.total_msg_bytes            0                       # Total number of bytes forwarded by this switch (Byte)
system.ruby.network.routers9.throttle00.total_data_msg_bytes            0                       # Total number of data bytes forwarded by this switch (Byte)
system.ruby.network.routers9.throttle00.total_msg_wait_time            0                       # Total time spend forwarding messages (Tick)
system.ruby.network.routers9.throttle00.total_stall_cy            0                       # Total time spent blocked on any output link (Cycle)
system.ruby.network.routers9.throttle00.total_bw_sat_cy            0                       # Total time bandwidth was saturated on any output link (Cycle)
system.ruby.network.routers9.throttle00.avg_msg_wait_time          nan                       # Average time a message took to be forwarded (Ratio)
system.ruby.network.routers9.throttle00.avg_bandwidth         0.00                       # Average bandwidth (GB/s) (Ratio)
system.ruby.network.routers9.throttle00.avg_useful_bandwidth         0.00                       # Average usefull (only data) bandwidth (GB/s) (Ratio)
system.ruby.network.routers9.throttle01.acc_link_utilization            0                       # Accumulated link utilization (Count)
system.ruby.network.routers9.throttle01.link_utilization            0                       # Average link utilization (Ratio)
system.ruby.network.routers9.throttle01.total_msg_count            0                       # Total number of messages forwarded by this switch (Count)
system.ruby.network.routers9.throttle01.total_msg_bytes            0                       # Total number of bytes forwarded by this switch (Byte)
system.ruby.network.routers9.throttle01.total_data_msg_bytes            0                       # Total number of data bytes forwarded by this switch (Byte)
system.ruby.network.routers9.throttle01.total_msg_wait_time            0                       # Total time spend forwarding messages (Tick)
system.ruby.network.routers9.throttle01.total_stall_cy            0                       # Total time spent blocked on any output link (Cycle)
system.ruby.network.routers9.throttle01.total_bw_sat_cy            0                       # Total time bandwidth was saturated on any output link (Cycle)
system.ruby.network.routers9.throttle01.avg_msg_wait_time          nan                       # Average time a message took to be forwarded (Ratio)
system.ruby.network.routers9.throttle01.avg_bandwidth         0.00                       # Average bandwidth (GB/s) (Ratio)
system.ruby.network.routers9.throttle01.avg_useful_bandwidth         0.00                       # Average usefull (only data) bandwidth (GB/s) (Ratio)
system.ruby.power_state.pwrStateResidencyTicks::UNDEFINED 198635129154                       # Cumulative time (in ticks) in various power states (Tick)
system.sys_port_proxy.power_state.pwrStateResidencyTicks::UNDEFINED 198635129154                       # Cumulative time (in ticks) in various power states (Tick)
system.voltage_domain.voltage                       1                       # Voltage in Volts (Volt)
system.workload.inst.arm                            0                       # number of arm instructions executed (Count)
system.workload.inst.quiesce                        0                       # number of quiesce instructions executed (Count)
system.workload.pools.maxAllocatedBytes     105390080                       # Maximum allocated bytes among all pools at any point in time (Byte)

---------- End Simulation Statistics   ----------
