
---------- Begin Simulation Statistics ----------
simSeconds                                   0.663997                       # Number of seconds simulated (Second)
simTicks                                 663996853212                       # Number of ticks simulated (Tick)
finalTick                                663996853212                       # Number of ticks from beginning of simulation (restored from checkpoints and never reset) (Tick)
simFreq                                  1000000000000                       # The number of ticks per simulated second ((Tick/Second))
hostSeconds                                  41066.36                       # Real time elapsed on the host (Second)
hostTickRate                                 16168876                       # The number of ticks simulated per host second (ticks/s) ((Tick/Second))
hostMemory                                    1525416                       # Number of bytes of host memory used (Byte)
simInsts                                   3175014475                       # Number of instructions simulated (Count)
simOps                                     5598462586                       # Number of ops (including micro ops) simulated (Count)
hostInstRate                                    77314                       # Simulator instruction rate (inst/s) ((Count/Second))
hostOpRate                                     136327                       # Simulator op (including micro ops) rate (op/s) ((Count/Second))
system.clk_domain.clock                          1000                       # Clock period in ticks (Tick)
system.cpu0.numCycles                        73475877                       # Number of cpu cycles simulated (Cycle)
system.cpu0.cpi                              0.594380                       # CPI: cycles per instruction (core level) ((Cycle/Count))
system.cpu0.ipc                              1.682425                       # IPC: instructions per cycle (core level) ((Count/Cycle))
system.cpu0.numWorkItemsStarted                     0                       # Number of work items this cpu started (Count)
system.cpu0.numWorkItemsCompleted                   0                       # Number of work items this cpu completed (Count)
system.cpu0.instsAdded                      270208630                       # Number of instructions added to the IQ (excludes non-spec) (Count)
system.cpu0.nonSpecInstsAdded                   49996                       # Number of non-speculative instructions added to the IQ (Count)
system.cpu0.instsIssued                     249975713                       # Number of instructions issued (Count)
system.cpu0.squashedInstsIssued                 44173                       # Number of squashed instructions issued (Count)
system.cpu0.squashedInstsExamined            27243302                       # Number of squashed instructions iterated over during squash; mainly for profiling (Count)
system.cpu0.squashedOperandsExamined        129269595                       # Number of squashed operands that are examined and possibly removed from graph (Count)
system.cpu0.squashedNonSpecRemoved              24087                       # Number of squashed non-spec instructions that were removed (Count)
system.cpu0.numIssuedDist::samples           72825590                       # Number of insts issued each cycle (Count)
system.cpu0.numIssuedDist::mean              3.432526                       # Number of insts issued each cycle (Count)
system.cpu0.numIssuedDist::stdev             2.185166                       # Number of insts issued each cycle (Count)
system.cpu0.numIssuedDist::underflows               0      0.00%      0.00% # Number of insts issued each cycle (Count)
system.cpu0.numIssuedDist::0                  7644324     10.50%     10.50% # Number of insts issued each cycle (Count)
system.cpu0.numIssuedDist::1                  9320146     12.80%     23.29% # Number of insts issued each cycle (Count)
system.cpu0.numIssuedDist::2                  9470833     13.00%     36.30% # Number of insts issued each cycle (Count)
system.cpu0.numIssuedDist::3                 10313922     14.16%     50.46% # Number of insts issued each cycle (Count)
system.cpu0.numIssuedDist::4                 13016374     17.87%     68.34% # Number of insts issued each cycle (Count)
system.cpu0.numIssuedDist::5                  8885454     12.20%     80.54% # Number of insts issued each cycle (Count)
system.cpu0.numIssuedDist::6                  7471510     10.26%     90.80% # Number of insts issued each cycle (Count)
system.cpu0.numIssuedDist::7                  4173907      5.73%     96.53% # Number of insts issued each cycle (Count)
system.cpu0.numIssuedDist::8                  2529120      3.47%    100.00% # Number of insts issued each cycle (Count)
system.cpu0.numIssuedDist::overflows                0      0.00%    100.00% # Number of insts issued each cycle (Count)
system.cpu0.numIssuedDist::min_value                0                       # Number of insts issued each cycle (Count)
system.cpu0.numIssuedDist::max_value                8                       # Number of insts issued each cycle (Count)
system.cpu0.numIssuedDist::total             72825590                       # Number of insts issued each cycle (Count)
system.cpu0.statFuBusy::No_OpClass                  0      0.00%      0.00% # attempts to use FU when none available (Count)
system.cpu0.statFuBusy::IntAlu                1226189     27.60%     27.60% # attempts to use FU when none available (Count)
system.cpu0.statFuBusy::IntMult                     0      0.00%     27.60% # attempts to use FU when none available (Count)
system.cpu0.statFuBusy::IntDiv                      0      0.00%     27.60% # attempts to use FU when none available (Count)
system.cpu0.statFuBusy::FloatAdd                    0      0.00%     27.60% # attempts to use FU when none available (Count)
system.cpu0.statFuBusy::FloatCmp                    0      0.00%     27.60% # attempts to use FU when none available (Count)
system.cpu0.statFuBusy::FloatCvt                    2      0.00%     27.60% # attempts to use FU when none available (Count)
system.cpu0.statFuBusy::FloatMult                   0      0.00%     27.60% # attempts to use FU when none available (Count)
system.cpu0.statFuBusy::FloatMultAcc                0      0.00%     27.60% # attempts to use FU when none available (Count)
system.cpu0.statFuBusy::FloatDiv                    0      0.00%     27.60% # attempts to use FU when none available (Count)
system.cpu0.statFuBusy::FloatMisc                   0      0.00%     27.60% # attempts to use FU when none available (Count)
system.cpu0.statFuBusy::FloatSqrt                   0      0.00%     27.60% # attempts to use FU when none available (Count)
system.cpu0.statFuBusy::SimdAdd                  2345      0.05%     27.65% # attempts to use FU when none available (Count)
system.cpu0.statFuBusy::SimdAddAcc                  0      0.00%     27.65% # attempts to use FU when none available (Count)
system.cpu0.statFuBusy::SimdAlu                262404      5.91%     33.56% # attempts to use FU when none available (Count)
system.cpu0.statFuBusy::SimdCmp                     3      0.00%     33.56% # attempts to use FU when none available (Count)
system.cpu0.statFuBusy::SimdCvt                   133      0.00%     33.56% # attempts to use FU when none available (Count)
system.cpu0.statFuBusy::SimdMisc              1051056     23.66%     57.22% # attempts to use FU when none available (Count)
system.cpu0.statFuBusy::SimdMult                    0      0.00%     57.22% # attempts to use FU when none available (Count)
system.cpu0.statFuBusy::SimdMultAcc                 0      0.00%     57.22% # attempts to use FU when none available (Count)
system.cpu0.statFuBusy::SimdMatMultAcc              0      0.00%     57.22% # attempts to use FU when none available (Count)
system.cpu0.statFuBusy::SimdShift                 133      0.00%     57.23% # attempts to use FU when none available (Count)
system.cpu0.statFuBusy::SimdShiftAcc                0      0.00%     57.23% # attempts to use FU when none available (Count)
system.cpu0.statFuBusy::SimdDiv                     0      0.00%     57.23% # attempts to use FU when none available (Count)
system.cpu0.statFuBusy::SimdSqrt                    0      0.00%     57.23% # attempts to use FU when none available (Count)
system.cpu0.statFuBusy::SimdFloatAdd              167      0.00%     57.23% # attempts to use FU when none available (Count)
system.cpu0.statFuBusy::SimdFloatAlu                0      0.00%     57.23% # attempts to use FU when none available (Count)
system.cpu0.statFuBusy::SimdFloatCmp                0      0.00%     57.23% # attempts to use FU when none available (Count)
system.cpu0.statFuBusy::SimdFloatCvt             2218      0.05%     57.28% # attempts to use FU when none available (Count)
system.cpu0.statFuBusy::SimdFloatDiv               18      0.00%     57.28% # attempts to use FU when none available (Count)
system.cpu0.statFuBusy::SimdFloatMisc               0      0.00%     57.28% # attempts to use FU when none available (Count)
system.cpu0.statFuBusy::SimdFloatMult          265371      5.97%     63.25% # attempts to use FU when none available (Count)
system.cpu0.statFuBusy::SimdFloatMultAcc            0      0.00%     63.25% # attempts to use FU when none available (Count)
system.cpu0.statFuBusy::SimdFloatMatMultAcc            0      0.00%     63.25% # attempts to use FU when none available (Count)
system.cpu0.statFuBusy::SimdFloatSqrt               0      0.00%     63.25% # attempts to use FU when none available (Count)
system.cpu0.statFuBusy::SimdReduceAdd               0      0.00%     63.25% # attempts to use FU when none available (Count)
system.cpu0.statFuBusy::SimdReduceAlu               0      0.00%     63.25% # attempts to use FU when none available (Count)
system.cpu0.statFuBusy::SimdReduceCmp               0      0.00%     63.25% # attempts to use FU when none available (Count)
system.cpu0.statFuBusy::SimdFloatReduceAdd            0      0.00%     63.25% # attempts to use FU when none available (Count)
system.cpu0.statFuBusy::SimdFloatReduceCmp            0      0.00%     63.25% # attempts to use FU when none available (Count)
system.cpu0.statFuBusy::SimdAes                     0      0.00%     63.25% # attempts to use FU when none available (Count)
system.cpu0.statFuBusy::SimdAesMix                  0      0.00%     63.25% # attempts to use FU when none available (Count)
system.cpu0.statFuBusy::SimdSha1Hash                0      0.00%     63.25% # attempts to use FU when none available (Count)
system.cpu0.statFuBusy::SimdSha1Hash2               0      0.00%     63.25% # attempts to use FU when none available (Count)
system.cpu0.statFuBusy::SimdSha256Hash              0      0.00%     63.25% # attempts to use FU when none available (Count)
system.cpu0.statFuBusy::SimdSha256Hash2             0      0.00%     63.25% # attempts to use FU when none available (Count)
system.cpu0.statFuBusy::SimdShaSigma2               0      0.00%     63.25% # attempts to use FU when none available (Count)
system.cpu0.statFuBusy::SimdShaSigma3               0      0.00%     63.25% # attempts to use FU when none available (Count)
system.cpu0.statFuBusy::SimdPredAlu                 0      0.00%     63.25% # attempts to use FU when none available (Count)
system.cpu0.statFuBusy::Matrix                      0      0.00%     63.25% # attempts to use FU when none available (Count)
system.cpu0.statFuBusy::MatrixMov                   0      0.00%     63.25% # attempts to use FU when none available (Count)
system.cpu0.statFuBusy::MatrixOP                    0      0.00%     63.25% # attempts to use FU when none available (Count)
system.cpu0.statFuBusy::MemRead                 35237      0.79%     64.05% # attempts to use FU when none available (Count)
system.cpu0.statFuBusy::MemWrite                28341      0.64%     64.69% # attempts to use FU when none available (Count)
system.cpu0.statFuBusy::FloatMemRead          1304297     29.36%     94.05% # attempts to use FU when none available (Count)
system.cpu0.statFuBusy::FloatMemWrite          264527      5.95%    100.00% # attempts to use FU when none available (Count)
system.cpu0.statFuBusy::IprAccess                   0      0.00%    100.00% # attempts to use FU when none available (Count)
system.cpu0.statFuBusy::InstPrefetch                0      0.00%    100.00% # attempts to use FU when none available (Count)
system.cpu0.statFuBusy::SimdUnitStrideLoad            0      0.00%    100.00% # attempts to use FU when none available (Count)
system.cpu0.statFuBusy::SimdUnitStrideStore            0      0.00%    100.00% # attempts to use FU when none available (Count)
system.cpu0.statFuBusy::SimdUnitStrideMaskLoad            0      0.00%    100.00% # attempts to use FU when none available (Count)
system.cpu0.statFuBusy::SimdUnitStrideMaskStore            0      0.00%    100.00% # attempts to use FU when none available (Count)
system.cpu0.statFuBusy::SimdStridedLoad             0      0.00%    100.00% # attempts to use FU when none available (Count)
system.cpu0.statFuBusy::SimdStridedStore            0      0.00%    100.00% # attempts to use FU when none available (Count)
system.cpu0.statFuBusy::SimdIndexedLoad             0      0.00%    100.00% # attempts to use FU when none available (Count)
system.cpu0.statFuBusy::SimdIndexedStore            0      0.00%    100.00% # attempts to use FU when none available (Count)
system.cpu0.statFuBusy::SimdWholeRegisterLoad            0      0.00%    100.00% # attempts to use FU when none available (Count)
system.cpu0.statFuBusy::SimdWholeRegisterStore            0      0.00%    100.00% # attempts to use FU when none available (Count)
system.cpu0.statFuBusy::SimdUnitStrideFaultOnlyFirstLoad            0      0.00%    100.00% # attempts to use FU when none available (Count)
system.cpu0.statFuBusy::SimdUnitStrideSegmentedLoad            0      0.00%    100.00% # attempts to use FU when none available (Count)
system.cpu0.statFuBusy::SimdUnitStrideSegmentedStore            0      0.00%    100.00% # attempts to use FU when none available (Count)
system.cpu0.statFuBusy::SimdExt                     0      0.00%    100.00% # attempts to use FU when none available (Count)
system.cpu0.statFuBusy::SimdFloatExt                0      0.00%    100.00% # attempts to use FU when none available (Count)
system.cpu0.statFuBusy::SimdConfig                  0      0.00%    100.00% # attempts to use FU when none available (Count)
system.cpu0.statIssuedInstType_0::No_OpClass      1003491      0.40%      0.40% # Number of instructions issued per FU type, per thread (Count)
system.cpu0.statIssuedInstType_0::IntAlu    136711247     54.69%     55.09% # Number of instructions issued per FU type, per thread (Count)
system.cpu0.statIssuedInstType_0::IntMult       102008      0.04%     55.13% # Number of instructions issued per FU type, per thread (Count)
system.cpu0.statIssuedInstType_0::IntDiv      3692758      1.48%     56.61% # Number of instructions issued per FU type, per thread (Count)
system.cpu0.statIssuedInstType_0::FloatAdd     18683119      7.47%     64.08% # Number of instructions issued per FU type, per thread (Count)
system.cpu0.statIssuedInstType_0::FloatCmp            0      0.00%     64.08% # Number of instructions issued per FU type, per thread (Count)
system.cpu0.statIssuedInstType_0::FloatCvt         1517      0.00%     64.08% # Number of instructions issued per FU type, per thread (Count)
system.cpu0.statIssuedInstType_0::FloatMult            0      0.00%     64.08% # Number of instructions issued per FU type, per thread (Count)
system.cpu0.statIssuedInstType_0::FloatMultAcc            0      0.00%     64.08% # Number of instructions issued per FU type, per thread (Count)
system.cpu0.statIssuedInstType_0::FloatDiv            0      0.00%     64.08% # Number of instructions issued per FU type, per thread (Count)
system.cpu0.statIssuedInstType_0::FloatMisc            0      0.00%     64.08% # Number of instructions issued per FU type, per thread (Count)
system.cpu0.statIssuedInstType_0::FloatSqrt            0      0.00%     64.08% # Number of instructions issued per FU type, per thread (Count)
system.cpu0.statIssuedInstType_0::SimdAdd        18913      0.01%     64.09% # Number of instructions issued per FU type, per thread (Count)
system.cpu0.statIssuedInstType_0::SimdAddAcc            0      0.00%     64.09% # Number of instructions issued per FU type, per thread (Count)
system.cpu0.statIssuedInstType_0::SimdAlu      5462351      2.19%     66.28% # Number of instructions issued per FU type, per thread (Count)
system.cpu0.statIssuedInstType_0::SimdCmp           82      0.00%     66.28% # Number of instructions issued per FU type, per thread (Count)
system.cpu0.statIssuedInstType_0::SimdCvt       532412      0.21%     66.49% # Number of instructions issued per FU type, per thread (Count)
system.cpu0.statIssuedInstType_0::SimdMisc     10907706      4.36%     70.85% # Number of instructions issued per FU type, per thread (Count)
system.cpu0.statIssuedInstType_0::SimdMult            0      0.00%     70.85% # Number of instructions issued per FU type, per thread (Count)
system.cpu0.statIssuedInstType_0::SimdMultAcc            0      0.00%     70.85% # Number of instructions issued per FU type, per thread (Count)
system.cpu0.statIssuedInstType_0::SimdMatMultAcc            0      0.00%     70.85% # Number of instructions issued per FU type, per thread (Count)
system.cpu0.statIssuedInstType_0::SimdShift         1760      0.00%     70.85% # Number of instructions issued per FU type, per thread (Count)
system.cpu0.statIssuedInstType_0::SimdShiftAcc            0      0.00%     70.85% # Number of instructions issued per FU type, per thread (Count)
system.cpu0.statIssuedInstType_0::SimdDiv            0      0.00%     70.85% # Number of instructions issued per FU type, per thread (Count)
system.cpu0.statIssuedInstType_0::SimdSqrt            0      0.00%     70.85% # Number of instructions issued per FU type, per thread (Count)
system.cpu0.statIssuedInstType_0::SimdFloatAdd      5675069      2.27%     73.12% # Number of instructions issued per FU type, per thread (Count)
system.cpu0.statIssuedInstType_0::SimdFloatAlu            0      0.00%     73.12% # Number of instructions issued per FU type, per thread (Count)
system.cpu0.statIssuedInstType_0::SimdFloatCmp       786818      0.31%     73.44% # Number of instructions issued per FU type, per thread (Count)
system.cpu0.statIssuedInstType_0::SimdFloatCvt      7963253      3.19%     76.62% # Number of instructions issued per FU type, per thread (Count)
system.cpu0.statIssuedInstType_0::SimdFloatDiv      1904549      0.76%     77.39% # Number of instructions issued per FU type, per thread (Count)
system.cpu0.statIssuedInstType_0::SimdFloatMisc            0      0.00%     77.39% # Number of instructions issued per FU type, per thread (Count)
system.cpu0.statIssuedInstType_0::SimdFloatMult      5840564      2.34%     79.72% # Number of instructions issued per FU type, per thread (Count)
system.cpu0.statIssuedInstType_0::SimdFloatMultAcc            0      0.00%     79.72% # Number of instructions issued per FU type, per thread (Count)
system.cpu0.statIssuedInstType_0::SimdFloatMatMultAcc            0      0.00%     79.72% # Number of instructions issued per FU type, per thread (Count)
system.cpu0.statIssuedInstType_0::SimdFloatSqrt            0      0.00%     79.72% # Number of instructions issued per FU type, per thread (Count)
system.cpu0.statIssuedInstType_0::SimdReduceAdd            0      0.00%     79.72% # Number of instructions issued per FU type, per thread (Count)
system.cpu0.statIssuedInstType_0::SimdReduceAlu            0      0.00%     79.72% # Number of instructions issued per FU type, per thread (Count)
system.cpu0.statIssuedInstType_0::SimdReduceCmp            0      0.00%     79.72% # Number of instructions issued per FU type, per thread (Count)
system.cpu0.statIssuedInstType_0::SimdFloatReduceAdd            0      0.00%     79.72% # Number of instructions issued per FU type, per thread (Count)
system.cpu0.statIssuedInstType_0::SimdFloatReduceCmp            0      0.00%     79.72% # Number of instructions issued per FU type, per thread (Count)
system.cpu0.statIssuedInstType_0::SimdAes            0      0.00%     79.72% # Number of instructions issued per FU type, per thread (Count)
system.cpu0.statIssuedInstType_0::SimdAesMix            0      0.00%     79.72% # Number of instructions issued per FU type, per thread (Count)
system.cpu0.statIssuedInstType_0::SimdSha1Hash            0      0.00%     79.72% # Number of instructions issued per FU type, per thread (Count)
system.cpu0.statIssuedInstType_0::SimdSha1Hash2            0      0.00%     79.72% # Number of instructions issued per FU type, per thread (Count)
system.cpu0.statIssuedInstType_0::SimdSha256Hash            0      0.00%     79.72% # Number of instructions issued per FU type, per thread (Count)
system.cpu0.statIssuedInstType_0::SimdSha256Hash2            0      0.00%     79.72% # Number of instructions issued per FU type, per thread (Count)
system.cpu0.statIssuedInstType_0::SimdShaSigma2            0      0.00%     79.72% # Number of instructions issued per FU type, per thread (Count)
system.cpu0.statIssuedInstType_0::SimdShaSigma3            0      0.00%     79.72% # Number of instructions issued per FU type, per thread (Count)
system.cpu0.statIssuedInstType_0::SimdPredAlu            0      0.00%     79.72% # Number of instructions issued per FU type, per thread (Count)
system.cpu0.statIssuedInstType_0::Matrix            0      0.00%     79.72% # Number of instructions issued per FU type, per thread (Count)
system.cpu0.statIssuedInstType_0::MatrixMov            0      0.00%     79.72% # Number of instructions issued per FU type, per thread (Count)
system.cpu0.statIssuedInstType_0::MatrixOP            0      0.00%     79.72% # Number of instructions issued per FU type, per thread (Count)
system.cpu0.statIssuedInstType_0::MemRead     17322636      6.93%     86.65% # Number of instructions issued per FU type, per thread (Count)
system.cpu0.statIssuedInstType_0::MemWrite      8766956      3.51%     90.16% # Number of instructions issued per FU type, per thread (Count)
system.cpu0.statIssuedInstType_0::FloatMemRead     19228424      7.69%     97.85% # Number of instructions issued per FU type, per thread (Count)
system.cpu0.statIssuedInstType_0::FloatMemWrite      5370080      2.15%    100.00% # Number of instructions issued per FU type, per thread (Count)
system.cpu0.statIssuedInstType_0::IprAccess            0      0.00%    100.00% # Number of instructions issued per FU type, per thread (Count)
system.cpu0.statIssuedInstType_0::InstPrefetch            0      0.00%    100.00% # Number of instructions issued per FU type, per thread (Count)
system.cpu0.statIssuedInstType_0::SimdUnitStrideLoad            0      0.00%    100.00% # Number of instructions issued per FU type, per thread (Count)
system.cpu0.statIssuedInstType_0::SimdUnitStrideStore            0      0.00%    100.00% # Number of instructions issued per FU type, per thread (Count)
system.cpu0.statIssuedInstType_0::SimdUnitStrideMaskLoad            0      0.00%    100.00% # Number of instructions issued per FU type, per thread (Count)
system.cpu0.statIssuedInstType_0::SimdUnitStrideMaskStore            0      0.00%    100.00% # Number of instructions issued per FU type, per thread (Count)
system.cpu0.statIssuedInstType_0::SimdStridedLoad            0      0.00%    100.00% # Number of instructions issued per FU type, per thread (Count)
system.cpu0.statIssuedInstType_0::SimdStridedStore            0      0.00%    100.00% # Number of instructions issued per FU type, per thread (Count)
system.cpu0.statIssuedInstType_0::SimdIndexedLoad            0      0.00%    100.00% # Number of instructions issued per FU type, per thread (Count)
system.cpu0.statIssuedInstType_0::SimdIndexedStore            0      0.00%    100.00% # Number of instructions issued per FU type, per thread (Count)
system.cpu0.statIssuedInstType_0::SimdWholeRegisterLoad            0      0.00%    100.00% # Number of instructions issued per FU type, per thread (Count)
system.cpu0.statIssuedInstType_0::SimdWholeRegisterStore            0      0.00%    100.00% # Number of instructions issued per FU type, per thread (Count)
system.cpu0.statIssuedInstType_0::SimdUnitStrideFaultOnlyFirstLoad            0      0.00%    100.00% # Number of instructions issued per FU type, per thread (Count)
system.cpu0.statIssuedInstType_0::SimdUnitStrideSegmentedLoad            0      0.00%    100.00% # Number of instructions issued per FU type, per thread (Count)
system.cpu0.statIssuedInstType_0::SimdUnitStrideSegmentedStore            0      0.00%    100.00% # Number of instructions issued per FU type, per thread (Count)
system.cpu0.statIssuedInstType_0::SimdExt            0      0.00%    100.00% # Number of instructions issued per FU type, per thread (Count)
system.cpu0.statIssuedInstType_0::SimdFloatExt            0      0.00%    100.00% # Number of instructions issued per FU type, per thread (Count)
system.cpu0.statIssuedInstType_0::SimdConfig            0      0.00%    100.00% # Number of instructions issued per FU type, per thread (Count)
system.cpu0.statIssuedInstType_0::total     249975713                       # Number of instructions issued per FU type, per thread (Count)
system.cpu0.issueRate                        3.402147                       # Inst issue rate ((Count/Cycle))
system.cpu0.fuBusy                            4442441                       # FU busy when requested (Count)
system.cpu0.fuBusyRate                       0.017771                       # FU busy rate (busy events/executed inst) ((Count/Count))
system.cpu0.intInstQueueReads               392190221                       # Number of integer instruction queue reads (Count)
system.cpu0.intInstQueueWrites              208742905                       # Number of integer instruction queue writes (Count)
system.cpu0.intInstQueueWakeupAccesses      156958544                       # Number of integer instruction queue wakeup accesses (Count)
system.cpu0.fpInstQueueReads                185073409                       # Number of floating instruction queue reads (Count)
system.cpu0.fpInstQueueWrites                88763128                       # Number of floating instruction queue writes (Count)
system.cpu0.fpInstQueueWakeupAccesses        88300167                       # Number of floating instruction queue wakeup accesses (Count)
system.cpu0.vecInstQueueReads                       0                       # Number of vector instruction queue reads (Count)
system.cpu0.vecInstQueueWrites                      0                       # Number of vector instruction queue writes (Count)
system.cpu0.vecInstQueueWakeupAccesses              0                       # Number of vector instruction queue wakeup accesses (Count)
system.cpu0.intAluAccesses                  159307019                       # Number of integer alu accesses (Count)
system.cpu0.fpAluAccesses                    94107644                       # Number of floating point alu accesses (Count)
system.cpu0.vecAluAccesses                          0                       # Number of vector alu accesses (Count)
system.cpu0.numSquashedInsts                    68857                       # Number of squashed instructions skipped in execute (Count)
system.cpu0.numSwp                                  0                       # Number of swp insts executed (Count)
system.cpu0.timesIdled                           5350                       # Number of times that the entire CPU went into an idle state and unscheduled itself (Count)
system.cpu0.idleCycles                         650287                       # Total number of cycles that the CPU has spent unscheduled due to idling (Cycle)
system.cpu0.quiesceCycles                  2185016822                       # Total number of cycles that CPU has spent quiesced or waiting for an interrupt (Cycle)
system.cpu0.MemDepUnit__0.insertedLoads      32397562                       # Number of loads inserted to the mem dependence unit. (Count)
system.cpu0.MemDepUnit__0.insertedStores     13948088                       # Number of stores inserted to the mem dependence unit. (Count)
system.cpu0.MemDepUnit__0.conflictingLoads      1004766                       # Number of conflicting loads. (Count)
system.cpu0.MemDepUnit__0.conflictingStores       964411                       # Number of conflicting stores. (Count)
system.cpu0.MemDepUnit__1.insertedLoads             0                       # Number of loads inserted to the mem dependence unit. (Count)
system.cpu0.MemDepUnit__1.insertedStores            0                       # Number of stores inserted to the mem dependence unit. (Count)
system.cpu0.MemDepUnit__1.conflictingLoads            0                       # Number of conflicting loads. (Count)
system.cpu0.MemDepUnit__1.conflictingStores            0                       # Number of conflicting stores. (Count)
system.cpu0.MemDepUnit__2.insertedLoads             0                       # Number of loads inserted to the mem dependence unit. (Count)
system.cpu0.MemDepUnit__2.insertedStores            0                       # Number of stores inserted to the mem dependence unit. (Count)
system.cpu0.MemDepUnit__2.conflictingLoads            0                       # Number of conflicting loads. (Count)
system.cpu0.MemDepUnit__2.conflictingStores            0                       # Number of conflicting stores. (Count)
system.cpu0.MemDepUnit__3.insertedLoads             0                       # Number of loads inserted to the mem dependence unit. (Count)
system.cpu0.MemDepUnit__3.insertedStores            0                       # Number of stores inserted to the mem dependence unit. (Count)
system.cpu0.MemDepUnit__3.conflictingLoads            0                       # Number of conflicting loads. (Count)
system.cpu0.MemDepUnit__3.conflictingStores            0                       # Number of conflicting stores. (Count)
system.cpu0.branchPred.lookups_0::NoBranch         2423      0.01%      0.01% # Number of BP lookups (Count)
system.cpu0.branchPred.lookups_0::Return      2325789      9.77%      9.78% # Number of BP lookups (Count)
system.cpu0.branchPred.lookups_0::CallDirect      1784641      7.49%     17.27% # Number of BP lookups (Count)
system.cpu0.branchPred.lookups_0::CallIndirect       542038      2.28%     19.55% # Number of BP lookups (Count)
system.cpu0.branchPred.lookups_0::DirectCond     17677852     74.23%     93.78% # Number of BP lookups (Count)
system.cpu0.branchPred.lookups_0::DirectUncond      1342556      5.64%     99.41% # Number of BP lookups (Count)
system.cpu0.branchPred.lookups_0::IndirectCond            0      0.00%     99.41% # Number of BP lookups (Count)
system.cpu0.branchPred.lookups_0::IndirectUncond       139334      0.59%    100.00% # Number of BP lookups (Count)
system.cpu0.branchPred.lookups_0::total      23814633                       # Number of BP lookups (Count)
system.cpu0.branchPred.squashes_0::NoBranch         2303      0.04%      0.04% # Number of branches that got squashed (completely removed) as an earlier branch was mispredicted. (Count)
system.cpu0.branchPred.squashes_0::Return        32900      0.52%      0.55% # Number of branches that got squashed (completely removed) as an earlier branch was mispredicted. (Count)
system.cpu0.branchPred.squashes_0::CallDirect        24915      0.39%      0.95% # Number of branches that got squashed (completely removed) as an earlier branch was mispredicted. (Count)
system.cpu0.branchPred.squashes_0::CallIndirect         8870      0.14%      1.08% # Number of branches that got squashed (completely removed) as an earlier branch was mispredicted. (Count)
system.cpu0.branchPred.squashes_0::DirectCond      6251551     98.28%     99.37% # Number of branches that got squashed (completely removed) as an earlier branch was mispredicted. (Count)
system.cpu0.branchPred.squashes_0::DirectUncond        26588      0.42%     99.78% # Number of branches that got squashed (completely removed) as an earlier branch was mispredicted. (Count)
system.cpu0.branchPred.squashes_0::IndirectCond            0      0.00%     99.78% # Number of branches that got squashed (completely removed) as an earlier branch was mispredicted. (Count)
system.cpu0.branchPred.squashes_0::IndirectUncond        13692      0.22%    100.00% # Number of branches that got squashed (completely removed) as an earlier branch was mispredicted. (Count)
system.cpu0.branchPred.squashes_0::total      6360819                       # Number of branches that got squashed (completely removed) as an earlier branch was mispredicted. (Count)
system.cpu0.branchPred.corrected_0::NoBranch          292      0.10%      0.10% # Number of branches that got corrected but not yet commited. Branches get corrected by decode or after execute. Also a branch misprediction can be detected out-of-order. Therefore, a corrected branch might not end up beeing committed in case an even earlier branch was mispredicted (Count)
system.cpu0.branchPred.corrected_0::Return          181      0.06%      0.16% # Number of branches that got corrected but not yet commited. Branches get corrected by decode or after execute. Also a branch misprediction can be detected out-of-order. Therefore, a corrected branch might not end up beeing committed in case an even earlier branch was mispredicted (Count)
system.cpu0.branchPred.corrected_0::CallDirect         4243      1.43%      1.58% # Number of branches that got corrected but not yet commited. Branches get corrected by decode or after execute. Also a branch misprediction can be detected out-of-order. Therefore, a corrected branch might not end up beeing committed in case an even earlier branch was mispredicted (Count)
system.cpu0.branchPred.corrected_0::CallIndirect         1587      0.53%      2.12% # Number of branches that got corrected but not yet commited. Branches get corrected by decode or after execute. Also a branch misprediction can be detected out-of-order. Therefore, a corrected branch might not end up beeing committed in case an even earlier branch was mispredicted (Count)
system.cpu0.branchPred.corrected_0::DirectCond       287240     96.51%     98.63% # Number of branches that got corrected but not yet commited. Branches get corrected by decode or after execute. Also a branch misprediction can be detected out-of-order. Therefore, a corrected branch might not end up beeing committed in case an even earlier branch was mispredicted (Count)
system.cpu0.branchPred.corrected_0::DirectUncond         2467      0.83%     99.46% # Number of branches that got corrected but not yet commited. Branches get corrected by decode or after execute. Also a branch misprediction can be detected out-of-order. Therefore, a corrected branch might not end up beeing committed in case an even earlier branch was mispredicted (Count)
system.cpu0.branchPred.corrected_0::IndirectCond            0      0.00%     99.46% # Number of branches that got corrected but not yet commited. Branches get corrected by decode or after execute. Also a branch misprediction can be detected out-of-order. Therefore, a corrected branch might not end up beeing committed in case an even earlier branch was mispredicted (Count)
system.cpu0.branchPred.corrected_0::IndirectUncond         1617      0.54%    100.00% # Number of branches that got corrected but not yet commited. Branches get corrected by decode or after execute. Also a branch misprediction can be detected out-of-order. Therefore, a corrected branch might not end up beeing committed in case an even earlier branch was mispredicted (Count)
system.cpu0.branchPred.corrected_0::total       297627                       # Number of branches that got corrected but not yet commited. Branches get corrected by decode or after execute. Also a branch misprediction can be detected out-of-order. Therefore, a corrected branch might not end up beeing committed in case an even earlier branch was mispredicted (Count)
system.cpu0.branchPred.earlyResteers_0::NoBranch            0                       # Number of branches that got redirected after decode. (Count)
system.cpu0.branchPred.earlyResteers_0::Return            0                       # Number of branches that got redirected after decode. (Count)
system.cpu0.branchPred.earlyResteers_0::CallDirect            0                       # Number of branches that got redirected after decode. (Count)
system.cpu0.branchPred.earlyResteers_0::CallIndirect            0                       # Number of branches that got redirected after decode. (Count)
system.cpu0.branchPred.earlyResteers_0::DirectCond            0                       # Number of branches that got redirected after decode. (Count)
system.cpu0.branchPred.earlyResteers_0::DirectUncond            0                       # Number of branches that got redirected after decode. (Count)
system.cpu0.branchPred.earlyResteers_0::IndirectCond            0                       # Number of branches that got redirected after decode. (Count)
system.cpu0.branchPred.earlyResteers_0::IndirectUncond            0                       # Number of branches that got redirected after decode. (Count)
system.cpu0.branchPred.earlyResteers_0::total            0                       # Number of branches that got redirected after decode. (Count)
system.cpu0.branchPred.committed_0::NoBranch          120      0.00%      0.00% # Number of branches finally committed  (Count)
system.cpu0.branchPred.committed_0::Return      2292889     13.14%     13.14% # Number of branches finally committed  (Count)
system.cpu0.branchPred.committed_0::CallDirect      1759726     10.08%     23.22% # Number of branches finally committed  (Count)
system.cpu0.branchPred.committed_0::CallIndirect       533168      3.05%     26.27% # Number of branches finally committed  (Count)
system.cpu0.branchPred.committed_0::DirectCond     11426300     65.47%     91.74% # Number of branches finally committed  (Count)
system.cpu0.branchPred.committed_0::DirectUncond      1315968      7.54%     99.28% # Number of branches finally committed  (Count)
system.cpu0.branchPred.committed_0::IndirectCond            0      0.00%     99.28% # Number of branches finally committed  (Count)
system.cpu0.branchPred.committed_0::IndirectUncond       125642      0.72%    100.00% # Number of branches finally committed  (Count)
system.cpu0.branchPred.committed_0::total     17453813                       # Number of branches finally committed  (Count)
system.cpu0.branchPred.mispredicted_0::NoBranch          120      0.04%      0.04% # Number of committed branches that were mispredicted. (Count)
system.cpu0.branchPred.mispredicted_0::Return          181      0.06%      0.10% # Number of committed branches that were mispredicted. (Count)
system.cpu0.branchPred.mispredicted_0::CallDirect         2710      0.93%      1.03% # Number of committed branches that were mispredicted. (Count)
system.cpu0.branchPred.mispredicted_0::CallIndirect         1522      0.52%      1.55% # Number of committed branches that were mispredicted. (Count)
system.cpu0.branchPred.mispredicted_0::DirectCond       284499     97.44%     99.00% # Number of committed branches that were mispredicted. (Count)
system.cpu0.branchPred.mispredicted_0::DirectUncond         1318      0.45%     99.45% # Number of committed branches that were mispredicted. (Count)
system.cpu0.branchPred.mispredicted_0::IndirectCond            0      0.00%     99.45% # Number of committed branches that were mispredicted. (Count)
system.cpu0.branchPred.mispredicted_0::IndirectUncond         1614      0.55%    100.00% # Number of committed branches that were mispredicted. (Count)
system.cpu0.branchPred.mispredicted_0::total       291964                       # Number of committed branches that were mispredicted. (Count)
system.cpu0.branchPred.targetProvider_0::NoTarget      7919817     33.26%     33.26% # The component providing the target for taken branches (Count)
system.cpu0.branchPred.targetProvider_0::BTB     12906744     54.20%     87.45% # The component providing the target for taken branches (Count)
system.cpu0.branchPred.targetProvider_0::RAS      2325789      9.77%     97.22% # The component providing the target for taken branches (Count)
system.cpu0.branchPred.targetProvider_0::Indirect       662283      2.78%    100.00% # The component providing the target for taken branches (Count)
system.cpu0.branchPred.targetProvider_0::total     23814633                       # The component providing the target for taken branches (Count)
system.cpu0.branchPred.targetWrong_0::NoBranch        25292     74.76%     74.76% # Number of branches where the target was incorrect or not available at prediction time. (Count)
system.cpu0.branchPred.targetWrong_0::Return         8185     24.19%     98.96% # Number of branches where the target was incorrect or not available at prediction time. (Count)
system.cpu0.branchPred.targetWrong_0::CallDirect          181      0.54%     99.49% # Number of branches where the target was incorrect or not available at prediction time. (Count)
system.cpu0.branchPred.targetWrong_0::CallIndirect          172      0.51%    100.00% # Number of branches where the target was incorrect or not available at prediction time. (Count)
system.cpu0.branchPred.targetWrong_0::DirectCond            0      0.00%    100.00% # Number of branches where the target was incorrect or not available at prediction time. (Count)
system.cpu0.branchPred.targetWrong_0::DirectUncond            0      0.00%    100.00% # Number of branches where the target was incorrect or not available at prediction time. (Count)
system.cpu0.branchPred.targetWrong_0::IndirectCond            0      0.00%    100.00% # Number of branches where the target was incorrect or not available at prediction time. (Count)
system.cpu0.branchPred.targetWrong_0::IndirectUncond            0      0.00%    100.00% # Number of branches where the target was incorrect or not available at prediction time. (Count)
system.cpu0.branchPred.targetWrong_0::total        33830                       # Number of branches where the target was incorrect or not available at prediction time. (Count)
system.cpu0.branchPred.condPredicted         17680274                       # Number of conditional branches predicted (Count)
system.cpu0.branchPred.condPredictedTaken      9792821                       # Number of conditional branches predicted as taken (Count)
system.cpu0.branchPred.condIncorrect           297627                       # Number of conditional branches incorrect (Count)
system.cpu0.branchPred.predTakenBTBMiss          7705                       # Number of branches predicted taken but missed in BTB (Count)
system.cpu0.branchPred.NotTakenMispredicted        27154                       # Number branches predicted 'not taken' but turned out to be taken (Count)
system.cpu0.branchPred.TakenMispredicted       270473                       # Number branches predicted taken but are actually not taken (Count)
system.cpu0.branchPred.BTBLookups            23814633                       # Number of BTB lookups (Count)
system.cpu0.branchPred.BTBUpdates               23477                       # Number of BTB updates (Count)
system.cpu0.branchPred.BTBHits               15923872                       # Number of BTB hits (Count)
system.cpu0.branchPred.BTBHitRatio           0.668659                       # BTB Hit Ratio (Ratio)
system.cpu0.branchPred.BTBMispredicted          10492                       # Number BTB mispredictions. No target found or target wrong (Count)
system.cpu0.branchPred.indirectLookups         681372                       # Number of indirect predictor lookups. (Count)
system.cpu0.branchPred.indirectHits            662283                       # Number of indirect target hits. (Count)
system.cpu0.branchPred.indirectMisses           19089                       # Number of indirect misses. (Count)
system.cpu0.branchPred.indirectMispredicted            0                       # Number of mispredicted indirect branches. (Count)
system.cpu0.branchPred.btb.lookups::NoBranch         2423      0.01%      0.01% # Number of BTB lookups (Count)
system.cpu0.branchPred.btb.lookups::Return      2325789      9.77%      9.78% # Number of BTB lookups (Count)
system.cpu0.branchPred.btb.lookups::CallDirect      1784641      7.49%     17.27% # Number of BTB lookups (Count)
system.cpu0.branchPred.btb.lookups::CallIndirect       542038      2.28%     19.55% # Number of BTB lookups (Count)
system.cpu0.branchPred.btb.lookups::DirectCond     17677852     74.23%     93.78% # Number of BTB lookups (Count)
system.cpu0.branchPred.btb.lookups::DirectUncond      1342556      5.64%     99.41% # Number of BTB lookups (Count)
system.cpu0.branchPred.btb.lookups::IndirectCond            0      0.00%     99.41% # Number of BTB lookups (Count)
system.cpu0.branchPred.btb.lookups::IndirectUncond       139334      0.59%    100.00% # Number of BTB lookups (Count)
system.cpu0.branchPred.btb.lookups::total     23814633                       # Number of BTB lookups (Count)
system.cpu0.branchPred.btb.misses::NoBranch          417      0.01%      0.01% # Number of BTB misses (Count)
system.cpu0.branchPred.btb.misses::Return      2059751     26.10%     26.11% # Number of BTB misses (Count)
system.cpu0.branchPred.btb.misses::CallDirect         5369      0.07%     26.18% # Number of BTB misses (Count)
system.cpu0.branchPred.btb.misses::CallIndirect       541356      6.86%     33.04% # Number of BTB misses (Count)
system.cpu0.branchPred.btb.misses::DirectCond      5141744     65.16%     98.20% # Number of BTB misses (Count)
system.cpu0.branchPred.btb.misses::DirectUncond         2790      0.04%     98.23% # Number of BTB misses (Count)
system.cpu0.branchPred.btb.misses::IndirectCond            0      0.00%     98.23% # Number of BTB misses (Count)
system.cpu0.branchPred.btb.misses::IndirectUncond       139334      1.77%    100.00% # Number of BTB misses (Count)
system.cpu0.branchPred.btb.misses::total      7890761                       # Number of BTB misses (Count)
system.cpu0.branchPred.btb.updates::NoBranch            0      0.00%      0.00% # Number of BTB updates (Count)
system.cpu0.branchPred.btb.updates::Return            0      0.00%      0.00% # Number of BTB updates (Count)
system.cpu0.branchPred.btb.updates::CallDirect         4243     18.07%     18.07% # Number of BTB updates (Count)
system.cpu0.branchPred.btb.updates::CallIndirect            0      0.00%     18.07% # Number of BTB updates (Count)
system.cpu0.branchPred.btb.updates::DirectCond        16767     71.42%     89.49% # Number of BTB updates (Count)
system.cpu0.branchPred.btb.updates::DirectUncond         2467     10.51%    100.00% # Number of BTB updates (Count)
system.cpu0.branchPred.btb.updates::IndirectCond            0      0.00%    100.00% # Number of BTB updates (Count)
system.cpu0.branchPred.btb.updates::IndirectUncond            0      0.00%    100.00% # Number of BTB updates (Count)
system.cpu0.branchPred.btb.updates::total        23477                       # Number of BTB updates (Count)
system.cpu0.branchPred.btb.mispredict::NoBranch            0      0.00%      0.00% # Number of BTB mispredictions. No target found or target wrong. (Count)
system.cpu0.branchPred.btb.mispredict::Return            0      0.00%      0.00% # Number of BTB mispredictions. No target found or target wrong. (Count)
system.cpu0.branchPred.btb.mispredict::CallDirect         4243     18.07%     18.07% # Number of BTB mispredictions. No target found or target wrong. (Count)
system.cpu0.branchPred.btb.mispredict::CallIndirect            0      0.00%     18.07% # Number of BTB mispredictions. No target found or target wrong. (Count)
system.cpu0.branchPred.btb.mispredict::DirectCond        16767     71.42%     89.49% # Number of BTB mispredictions. No target found or target wrong. (Count)
system.cpu0.branchPred.btb.mispredict::DirectUncond         2467     10.51%    100.00% # Number of BTB mispredictions. No target found or target wrong. (Count)
system.cpu0.branchPred.btb.mispredict::IndirectCond            0      0.00%    100.00% # Number of BTB mispredictions. No target found or target wrong. (Count)
system.cpu0.branchPred.btb.mispredict::IndirectUncond            0      0.00%    100.00% # Number of BTB mispredictions. No target found or target wrong. (Count)
system.cpu0.branchPred.btb.mispredict::total        23477                       # Number of BTB mispredictions. No target found or target wrong. (Count)
system.cpu0.branchPred.btb.power_state.pwrStateResidencyTicks::UNDEFINED 663996853212                       # Cumulative time (in ticks) in various power states (Tick)
system.cpu0.branchPred.indirectBranchPred.lookups       681372                       # Number of lookups (Count)
system.cpu0.branchPred.indirectBranchPred.hits       662283                       # Number of hits of a tag (Count)
system.cpu0.branchPred.indirectBranchPred.misses        19089                       # Number of misses (Count)
system.cpu0.branchPred.indirectBranchPred.targetRecords         3204                       # Number of targets that where recorded/installed in the cache (Count)
system.cpu0.branchPred.indirectBranchPred.indirectRecords       684576                       # Number of indirect branches/calls recorded in the indirect hist (Count)
system.cpu0.branchPred.indirectBranchPred.speculativeOverflows            7                       # Number of times more than the allowed capacity for speculative branches/calls where in flight and destroy the path history (Count)
system.cpu0.branchPred.loop_predictor.used       275657                       # Number of times the loop predictor is the provider. (Count)
system.cpu0.branchPred.loop_predictor.correct       275612                       # Number of times the loop predictor is the provider and the prediction is correct (Count)
system.cpu0.branchPred.loop_predictor.wrong           45                       # Number of times the loop predictor is the provider and the prediction is wrong (Count)
system.cpu0.branchPred.ras.pushes             2359579                       # Number of times a PC was pushed onto the RAS (Count)
system.cpu0.branchPred.ras.pops               2359574                       # Number of times a PC was poped from the RAS (Count)
system.cpu0.branchPred.ras.squashes             66685                       # Number of times the stack operation was squashed due to wrong speculation. (Count)
system.cpu0.branchPred.ras.used               2292889                       # Number of times the RAS is the provider (Count)
system.cpu0.branchPred.ras.correct            2292708                       # Number of times the RAS is the provider and the prediction is correct (Count)
system.cpu0.branchPred.ras.incorrect              181                       # Number of times the RAS is the provider and the prediction is wrong (Count)
system.cpu0.branchPred.statistical_corrector.correct      7492187                       # Number of time the SC predictor is the provider and the prediction is correct (Count)
system.cpu0.branchPred.statistical_corrector.wrong      3934233                       # Number of time the SC predictor is the provider and the prediction is wrong (Count)
system.cpu0.branchPred.tage.longestMatchProviderCorrect      3029700                       # Number of times TAGE Longest Match is the provider and the prediction is correct (Count)
system.cpu0.branchPred.tage.altMatchProviderCorrect       268250                       # Number of times TAGE Alt Match is the provider and the prediction is correct (Count)
system.cpu0.branchPred.tage.bimodalAltMatchProviderCorrect         2171                       # Number of times TAGE Alt Match is the bimodal and it is the provider and the prediction is correct (Count)
system.cpu0.branchPred.tage.bimodalProviderCorrect      7562584                       # Number of times there are no hits on the TAGE tables and the bimodal prediction is correct (Count)
system.cpu0.branchPred.tage.longestMatchProviderWrong        10316                       # Number of times TAGE Longest Match is the provider and the prediction is wrong (Count)
system.cpu0.branchPred.tage.altMatchProviderWrong       263663                       # Number of times TAGE Alt Match is the provider and the prediction is wrong (Count)
system.cpu0.branchPred.tage.bimodalAltMatchProviderWrong          330                       # Number of times TAGE Alt Match is the bimodal and it is the provider and the prediction is wrong (Count)
system.cpu0.branchPred.tage.bimodalProviderWrong         6808                       # Number of times there are no hits on the TAGE tables and the bimodal prediction is wrong (Count)
system.cpu0.branchPred.tage.altMatchProviderWouldHaveHit         1425                       # Number of times TAGE Longest Match is the provider, the prediction is wrong and Alt Match prediction was correct (Count)
system.cpu0.branchPred.tage.longestMatchProviderWouldHaveHit       262911                       # Number of times TAGE Alt Match is the provider, the prediction is wrong and Longest Match prediction was correct (Count)
system.cpu0.branchPred.tage.longestMatchProvider::0            0                       # TAGE provider for longest match (Count)
system.cpu0.branchPred.tage.longestMatchProvider::1            0                       # TAGE provider for longest match (Count)
system.cpu0.branchPred.tage.longestMatchProvider::2        35822                       # TAGE provider for longest match (Count)
system.cpu0.branchPred.tage.longestMatchProvider::3            0                       # TAGE provider for longest match (Count)
system.cpu0.branchPred.tage.longestMatchProvider::4            0                       # TAGE provider for longest match (Count)
system.cpu0.branchPred.tage.longestMatchProvider::5            0                       # TAGE provider for longest match (Count)
system.cpu0.branchPred.tage.longestMatchProvider::6       816194                       # TAGE provider for longest match (Count)
system.cpu0.branchPred.tage.longestMatchProvider::7            0                       # TAGE provider for longest match (Count)
system.cpu0.branchPred.tage.longestMatchProvider::8            0                       # TAGE provider for longest match (Count)
system.cpu0.branchPred.tage.longestMatchProvider::9      1089293                       # TAGE provider for longest match (Count)
system.cpu0.branchPred.tage.longestMatchProvider::10        95421                       # TAGE provider for longest match (Count)
system.cpu0.branchPred.tage.longestMatchProvider::11        56801                       # TAGE provider for longest match (Count)
system.cpu0.branchPred.tage.longestMatchProvider::12         7875                       # TAGE provider for longest match (Count)
system.cpu0.branchPred.tage.longestMatchProvider::13         3216                       # TAGE provider for longest match (Count)
system.cpu0.branchPred.tage.longestMatchProvider::14        88977                       # TAGE provider for longest match (Count)
system.cpu0.branchPred.tage.longestMatchProvider::15       261227                       # TAGE provider for longest match (Count)
system.cpu0.branchPred.tage.longestMatchProvider::16         5022                       # TAGE provider for longest match (Count)
system.cpu0.branchPred.tage.longestMatchProvider::17       234793                       # TAGE provider for longest match (Count)
system.cpu0.branchPred.tage.longestMatchProvider::18       347795                       # TAGE provider for longest match (Count)
system.cpu0.branchPred.tage.longestMatchProvider::19        20568                       # TAGE provider for longest match (Count)
system.cpu0.branchPred.tage.longestMatchProvider::20        80544                       # TAGE provider for longest match (Count)
system.cpu0.branchPred.tage.longestMatchProvider::21         9514                       # TAGE provider for longest match (Count)
system.cpu0.branchPred.tage.longestMatchProvider::22        33938                       # TAGE provider for longest match (Count)
system.cpu0.branchPred.tage.longestMatchProvider::23            0                       # TAGE provider for longest match (Count)
system.cpu0.branchPred.tage.longestMatchProvider::24        39870                       # TAGE provider for longest match (Count)
system.cpu0.branchPred.tage.longestMatchProvider::25            0                       # TAGE provider for longest match (Count)
system.cpu0.branchPred.tage.longestMatchProvider::26        22425                       # TAGE provider for longest match (Count)
system.cpu0.branchPred.tage.longestMatchProvider::27            0                       # TAGE provider for longest match (Count)
system.cpu0.branchPred.tage.longestMatchProvider::28        69866                       # TAGE provider for longest match (Count)
system.cpu0.branchPred.tage.longestMatchProvider::29            0                       # TAGE provider for longest match (Count)
system.cpu0.branchPred.tage.longestMatchProvider::30            0                       # TAGE provider for longest match (Count)
system.cpu0.branchPred.tage.longestMatchProvider::31            0                       # TAGE provider for longest match (Count)
system.cpu0.branchPred.tage.longestMatchProvider::32       120202                       # TAGE provider for longest match (Count)
system.cpu0.branchPred.tage.longestMatchProvider::33            0                       # TAGE provider for longest match (Count)
system.cpu0.branchPred.tage.longestMatchProvider::34            0                       # TAGE provider for longest match (Count)
system.cpu0.branchPred.tage.longestMatchProvider::35            0                       # TAGE provider for longest match (Count)
system.cpu0.branchPred.tage.longestMatchProvider::36       132566                       # TAGE provider for longest match (Count)
system.cpu0.branchPred.tage.altMatchProvider::0       422476                       # TAGE provider for alt match (Count)
system.cpu0.branchPred.tage.altMatchProvider::1            0                       # TAGE provider for alt match (Count)
system.cpu0.branchPred.tage.altMatchProvider::2       491884                       # TAGE provider for alt match (Count)
system.cpu0.branchPred.tage.altMatchProvider::3            0                       # TAGE provider for alt match (Count)
system.cpu0.branchPred.tage.altMatchProvider::4            0                       # TAGE provider for alt match (Count)
system.cpu0.branchPred.tage.altMatchProvider::5            0                       # TAGE provider for alt match (Count)
system.cpu0.branchPred.tage.altMatchProvider::6      1194603                       # TAGE provider for alt match (Count)
system.cpu0.branchPred.tage.altMatchProvider::7            0                       # TAGE provider for alt match (Count)
system.cpu0.branchPred.tage.altMatchProvider::8            0                       # TAGE provider for alt match (Count)
system.cpu0.branchPred.tage.altMatchProvider::9        12592                       # TAGE provider for alt match (Count)
system.cpu0.branchPred.tage.altMatchProvider::10        90325                       # TAGE provider for alt match (Count)
system.cpu0.branchPred.tage.altMatchProvider::11        83918                       # TAGE provider for alt match (Count)
system.cpu0.branchPred.tage.altMatchProvider::12       106937                       # TAGE provider for alt match (Count)
system.cpu0.branchPred.tage.altMatchProvider::13       368313                       # TAGE provider for alt match (Count)
system.cpu0.branchPred.tage.altMatchProvider::14       255089                       # TAGE provider for alt match (Count)
system.cpu0.branchPred.tage.altMatchProvider::15        38402                       # TAGE provider for alt match (Count)
system.cpu0.branchPred.tage.altMatchProvider::16        13106                       # TAGE provider for alt match (Count)
system.cpu0.branchPred.tage.altMatchProvider::17        24530                       # TAGE provider for alt match (Count)
system.cpu0.branchPred.tage.altMatchProvider::18        78235                       # TAGE provider for alt match (Count)
system.cpu0.branchPred.tage.altMatchProvider::19        18333                       # TAGE provider for alt match (Count)
system.cpu0.branchPred.tage.altMatchProvider::20        17012                       # TAGE provider for alt match (Count)
system.cpu0.branchPred.tage.altMatchProvider::21         8076                       # TAGE provider for alt match (Count)
system.cpu0.branchPred.tage.altMatchProvider::22        16723                       # TAGE provider for alt match (Count)
system.cpu0.branchPred.tage.altMatchProvider::23            0                       # TAGE provider for alt match (Count)
system.cpu0.branchPred.tage.altMatchProvider::24        34304                       # TAGE provider for alt match (Count)
system.cpu0.branchPred.tage.altMatchProvider::25            0                       # TAGE provider for alt match (Count)
system.cpu0.branchPred.tage.altMatchProvider::26        58380                       # TAGE provider for alt match (Count)
system.cpu0.branchPred.tage.altMatchProvider::27            0                       # TAGE provider for alt match (Count)
system.cpu0.branchPred.tage.altMatchProvider::28       113105                       # TAGE provider for alt match (Count)
system.cpu0.branchPred.tage.altMatchProvider::29            0                       # TAGE provider for alt match (Count)
system.cpu0.branchPred.tage.altMatchProvider::30            0                       # TAGE provider for alt match (Count)
system.cpu0.branchPred.tage.altMatchProvider::31            0                       # TAGE provider for alt match (Count)
system.cpu0.branchPred.tage.altMatchProvider::32       125586                       # TAGE provider for alt match (Count)
system.cpu0.branchPred.tage.altMatchProvider::33            0                       # TAGE provider for alt match (Count)
system.cpu0.branchPred.tage.altMatchProvider::34            0                       # TAGE provider for alt match (Count)
system.cpu0.branchPred.tage.altMatchProvider::35            0                       # TAGE provider for alt match (Count)
system.cpu0.branchPred.tage.altMatchProvider::36            0                       # TAGE provider for alt match (Count)
system.cpu0.clk_domain.clock                      294                       # Clock period in ticks (Tick)
system.cpu0.commit.commitSquashedInsts       27199244                       # The number of squashed insts skipped by commit (Count)
system.cpu0.commit.commitNonSpecStalls          25909                       # The number of times commit has been forced to stall to communicate backwards (Count)
system.cpu0.commit.branchMispredicts           296551                       # The number of times a branch was mispredicted (Count)
system.cpu0.commit.numCommittedDist::samples     69314248                       # Number of insts commited each cycle (Count)
system.cpu0.commit.numCommittedDist::mean     3.505994                       # Number of insts commited each cycle (Count)
system.cpu0.commit.numCommittedDist::stdev     2.926294                       # Number of insts commited each cycle (Count)
system.cpu0.commit.numCommittedDist::underflows            0      0.00%      0.00% # Number of insts commited each cycle (Count)
system.cpu0.commit.numCommittedDist::0        9578758     13.82%     13.82% # Number of insts commited each cycle (Count)
system.cpu0.commit.numCommittedDist::1       15539213     22.42%     36.24% # Number of insts commited each cycle (Count)
system.cpu0.commit.numCommittedDist::2        7256481     10.47%     46.71% # Number of insts commited each cycle (Count)
system.cpu0.commit.numCommittedDist::3        9798564     14.14%     60.84% # Number of insts commited each cycle (Count)
system.cpu0.commit.numCommittedDist::4        5087686      7.34%     68.18% # Number of insts commited each cycle (Count)
system.cpu0.commit.numCommittedDist::5        2291420      3.31%     71.49% # Number of insts commited each cycle (Count)
system.cpu0.commit.numCommittedDist::6        2202921      3.18%     74.67% # Number of insts commited each cycle (Count)
system.cpu0.commit.numCommittedDist::7        1931559      2.79%     77.45% # Number of insts commited each cycle (Count)
system.cpu0.commit.numCommittedDist::8       15627646     22.55%    100.00% # Number of insts commited each cycle (Count)
system.cpu0.commit.numCommittedDist::overflows            0      0.00%    100.00% # Number of insts commited each cycle (Count)
system.cpu0.commit.numCommittedDist::min_value            0                       # Number of insts commited each cycle (Count)
system.cpu0.commit.numCommittedDist::max_value            8                       # Number of insts commited each cycle (Count)
system.cpu0.commit.numCommittedDist::total     69314248                       # Number of insts commited each cycle (Count)
system.cpu0.commit.amos                             0                       # Number of atomic instructions committed (Count)
system.cpu0.commit.membars                      17842                       # Number of memory barriers committed (Count)
system.cpu0.commit.functionCalls              2292894                       # Number of function calls committed. (Count)
system.cpu0.commit.committedInstType_0::No_OpClass       974959      0.40%      0.40% # Class of committed instruction (Count)
system.cpu0.commit.committedInstType_0::IntAlu    135538892     55.77%     56.17% # Class of committed instruction (Count)
system.cpu0.commit.committedInstType_0::IntMult       101626      0.04%     56.22% # Class of committed instruction (Count)
system.cpu0.commit.committedInstType_0::IntDiv      2903916      1.19%     57.41% # Class of committed instruction (Count)
system.cpu0.commit.committedInstType_0::FloatAdd     18650390      7.67%     65.09% # Class of committed instruction (Count)
system.cpu0.commit.committedInstType_0::FloatCmp            0      0.00%     65.09% # Class of committed instruction (Count)
system.cpu0.commit.committedInstType_0::FloatCvt          848      0.00%     65.09% # Class of committed instruction (Count)
system.cpu0.commit.committedInstType_0::FloatMult            0      0.00%     65.09% # Class of committed instruction (Count)
system.cpu0.commit.committedInstType_0::FloatMultAcc            0      0.00%     65.09% # Class of committed instruction (Count)
system.cpu0.commit.committedInstType_0::FloatDiv            0      0.00%     65.09% # Class of committed instruction (Count)
system.cpu0.commit.committedInstType_0::FloatMisc            0      0.00%     65.09% # Class of committed instruction (Count)
system.cpu0.commit.committedInstType_0::FloatSqrt            0      0.00%     65.09% # Class of committed instruction (Count)
system.cpu0.commit.committedInstType_0::SimdAdd        18004      0.01%     65.09% # Class of committed instruction (Count)
system.cpu0.commit.committedInstType_0::SimdAddAcc            0      0.00%     65.09% # Class of committed instruction (Count)
system.cpu0.commit.committedInstType_0::SimdAlu      5453132      2.24%     67.34% # Class of committed instruction (Count)
system.cpu0.commit.committedInstType_0::SimdCmp           62      0.00%     67.34% # Class of committed instruction (Count)
system.cpu0.commit.committedInstType_0::SimdCvt       527810      0.22%     67.56% # Class of committed instruction (Count)
system.cpu0.commit.committedInstType_0::SimdMisc     10876506      4.48%     72.03% # Class of committed instruction (Count)
system.cpu0.commit.committedInstType_0::SimdMult            0      0.00%     72.03% # Class of committed instruction (Count)
system.cpu0.commit.committedInstType_0::SimdMultAcc            0      0.00%     72.03% # Class of committed instruction (Count)
system.cpu0.commit.committedInstType_0::SimdMatMultAcc            0      0.00%     72.03% # Class of committed instruction (Count)
system.cpu0.commit.committedInstType_0::SimdShift          762      0.00%     72.03% # Class of committed instruction (Count)
system.cpu0.commit.committedInstType_0::SimdShiftAcc            0      0.00%     72.03% # Class of committed instruction (Count)
system.cpu0.commit.committedInstType_0::SimdDiv            0      0.00%     72.03% # Class of committed instruction (Count)
system.cpu0.commit.committedInstType_0::SimdSqrt            0      0.00%     72.03% # Class of committed instruction (Count)
system.cpu0.commit.committedInstType_0::SimdFloatAdd      5662346      2.33%     74.36% # Class of committed instruction (Count)
system.cpu0.commit.committedInstType_0::SimdFloatAlu            0      0.00%     74.36% # Class of committed instruction (Count)
system.cpu0.commit.committedInstType_0::SimdFloatCmp       786818      0.32%     74.69% # Class of committed instruction (Count)
system.cpu0.commit.committedInstType_0::SimdFloatCvt      7948823      3.27%     77.96% # Class of committed instruction (Count)
system.cpu0.commit.committedInstType_0::SimdFloatDiv      1898612      0.78%     78.74% # Class of committed instruction (Count)
system.cpu0.commit.committedInstType_0::SimdFloatMisc            0      0.00%     78.74% # Class of committed instruction (Count)
system.cpu0.commit.committedInstType_0::SimdFloatMult      5833569      2.40%     81.14% # Class of committed instruction (Count)
system.cpu0.commit.committedInstType_0::SimdFloatMultAcc            0      0.00%     81.14% # Class of committed instruction (Count)
system.cpu0.commit.committedInstType_0::SimdFloatMatMultAcc            0      0.00%     81.14% # Class of committed instruction (Count)
system.cpu0.commit.committedInstType_0::SimdFloatSqrt            0      0.00%     81.14% # Class of committed instruction (Count)
system.cpu0.commit.committedInstType_0::SimdReduceAdd            0      0.00%     81.14% # Class of committed instruction (Count)
system.cpu0.commit.committedInstType_0::SimdReduceAlu            0      0.00%     81.14% # Class of committed instruction (Count)
system.cpu0.commit.committedInstType_0::SimdReduceCmp            0      0.00%     81.14% # Class of committed instruction (Count)
system.cpu0.commit.committedInstType_0::SimdFloatReduceAdd            0      0.00%     81.14% # Class of committed instruction (Count)
system.cpu0.commit.committedInstType_0::SimdFloatReduceCmp            0      0.00%     81.14% # Class of committed instruction (Count)
system.cpu0.commit.committedInstType_0::SimdAes            0      0.00%     81.14% # Class of committed instruction (Count)
system.cpu0.commit.committedInstType_0::SimdAesMix            0      0.00%     81.14% # Class of committed instruction (Count)
system.cpu0.commit.committedInstType_0::SimdSha1Hash            0      0.00%     81.14% # Class of committed instruction (Count)
system.cpu0.commit.committedInstType_0::SimdSha1Hash2            0      0.00%     81.14% # Class of committed instruction (Count)
system.cpu0.commit.committedInstType_0::SimdSha256Hash            0      0.00%     81.14% # Class of committed instruction (Count)
system.cpu0.commit.committedInstType_0::SimdSha256Hash2            0      0.00%     81.14% # Class of committed instruction (Count)
system.cpu0.commit.committedInstType_0::SimdShaSigma2            0      0.00%     81.14% # Class of committed instruction (Count)
system.cpu0.commit.committedInstType_0::SimdShaSigma3            0      0.00%     81.14% # Class of committed instruction (Count)
system.cpu0.commit.committedInstType_0::SimdPredAlu            0      0.00%     81.14% # Class of committed instruction (Count)
system.cpu0.commit.committedInstType_0::Matrix            0      0.00%     81.14% # Class of committed instruction (Count)
system.cpu0.commit.committedInstType_0::MatrixMov            0      0.00%     81.14% # Class of committed instruction (Count)
system.cpu0.commit.committedInstType_0::MatrixOP            0      0.00%     81.14% # Class of committed instruction (Count)
system.cpu0.commit.committedInstType_0::MemRead     15516549      6.39%     87.52% # Class of committed instruction (Count)
system.cpu0.commit.committedInstType_0::MemWrite      8426355      3.47%     90.99% # Class of committed instruction (Count)
system.cpu0.commit.committedInstType_0::FloatMemRead     16545470      6.81%     97.80% # Class of committed instruction (Count)
system.cpu0.commit.committedInstType_0::FloatMemWrite      5349869      2.20%    100.00% # Class of committed instruction (Count)
system.cpu0.commit.committedInstType_0::IprAccess            0      0.00%    100.00% # Class of committed instruction (Count)
system.cpu0.commit.committedInstType_0::InstPrefetch            0      0.00%    100.00% # Class of committed instruction (Count)
system.cpu0.commit.committedInstType_0::SimdUnitStrideLoad            0      0.00%    100.00% # Class of committed instruction (Count)
system.cpu0.commit.committedInstType_0::SimdUnitStrideStore            0      0.00%    100.00% # Class of committed instruction (Count)
system.cpu0.commit.committedInstType_0::SimdUnitStrideMaskLoad            0      0.00%    100.00% # Class of committed instruction (Count)
system.cpu0.commit.committedInstType_0::SimdUnitStrideMaskStore            0      0.00%    100.00% # Class of committed instruction (Count)
system.cpu0.commit.committedInstType_0::SimdStridedLoad            0      0.00%    100.00% # Class of committed instruction (Count)
system.cpu0.commit.committedInstType_0::SimdStridedStore            0      0.00%    100.00% # Class of committed instruction (Count)
system.cpu0.commit.committedInstType_0::SimdIndexedLoad            0      0.00%    100.00% # Class of committed instruction (Count)
system.cpu0.commit.committedInstType_0::SimdIndexedStore            0      0.00%    100.00% # Class of committed instruction (Count)
system.cpu0.commit.committedInstType_0::SimdWholeRegisterLoad            0      0.00%    100.00% # Class of committed instruction (Count)
system.cpu0.commit.committedInstType_0::SimdWholeRegisterStore            0      0.00%    100.00% # Class of committed instruction (Count)
system.cpu0.commit.committedInstType_0::SimdUnitStrideFaultOnlyFirstLoad            0      0.00%    100.00% # Class of committed instruction (Count)
system.cpu0.commit.committedInstType_0::SimdUnitStrideSegmentedLoad            0      0.00%    100.00% # Class of committed instruction (Count)
system.cpu0.commit.committedInstType_0::SimdUnitStrideSegmentedStore            0      0.00%    100.00% # Class of committed instruction (Count)
system.cpu0.commit.committedInstType_0::SimdExt            0      0.00%    100.00% # Class of committed instruction (Count)
system.cpu0.commit.committedInstType_0::SimdFloatExt            0      0.00%    100.00% # Class of committed instruction (Count)
system.cpu0.commit.committedInstType_0::SimdConfig            0      0.00%    100.00% # Class of committed instruction (Count)
system.cpu0.commit.committedInstType_0::total    243015318                       # Class of committed instruction (Count)
system.cpu0.commit.commitEligibleSamples     15627646                       # number cycles where commit BW limit reached (Cycle)
system.cpu0.commit.memoryViolations              3634                       # Number of memory violations (Cycle)
system.cpu0.commit.stalledBranchMispredicts            0                       # Number of delayed branch squashes (Cycle)
system.cpu0.commit.stalledMemoryViolations          150                       # Number of delayed memory violation squashes (Cycle)
system.cpu0.commitStats0.numInsts           123617639                       # Number of instructions committed (thread level) (Count)
system.cpu0.commitStats0.numOps             243015318                       # Number of ops (including micro ops) committed (thread level) (Count)
system.cpu0.commitStats0.numInstsNotNOP     123617639                       # Number of instructions committed excluding NOPs or prefetches (Count)
system.cpu0.commitStats0.numOpsNotNOP       243015318                       # Number of Ops (including micro ops) Simulated (Count)
system.cpu0.commitStats0.cpi                 0.594380                       # CPI: cycles per instruction (thread level) ((Cycle/Count))
system.cpu0.commitStats0.ipc                 1.682425                       # IPC: instructions per cycle (thread level) ((Count/Cycle))
system.cpu0.commitStats0.numMemRefs          45838243                       # Number of memory references committed (Count)
system.cpu0.commitStats0.numFpInsts          88121030                       # Number of float instructions (Count)
system.cpu0.commitStats0.numIntInsts        178246390                       # Number of integer instructions (Count)
system.cpu0.commitStats0.numLoadInsts        32062019                       # Number of load instructions (Count)
system.cpu0.commitStats0.numStoreInsts       13776224                       # Number of store instructions (Count)
system.cpu0.commitStats0.numVecInsts                0                       # Number of vector instructions (Count)
system.cpu0.commitStats0.committedInstType::No_OpClass       974959      0.40%      0.40% # Class of committed instruction. (Count)
system.cpu0.commitStats0.committedInstType::IntAlu    135538892     55.77%     56.17% # Class of committed instruction. (Count)
system.cpu0.commitStats0.committedInstType::IntMult       101626      0.04%     56.22% # Class of committed instruction. (Count)
system.cpu0.commitStats0.committedInstType::IntDiv      2903916      1.19%     57.41% # Class of committed instruction. (Count)
system.cpu0.commitStats0.committedInstType::FloatAdd     18650390      7.67%     65.09% # Class of committed instruction. (Count)
system.cpu0.commitStats0.committedInstType::FloatCmp            0      0.00%     65.09% # Class of committed instruction. (Count)
system.cpu0.commitStats0.committedInstType::FloatCvt          848      0.00%     65.09% # Class of committed instruction. (Count)
system.cpu0.commitStats0.committedInstType::FloatMult            0      0.00%     65.09% # Class of committed instruction. (Count)
system.cpu0.commitStats0.committedInstType::FloatMultAcc            0      0.00%     65.09% # Class of committed instruction. (Count)
system.cpu0.commitStats0.committedInstType::FloatDiv            0      0.00%     65.09% # Class of committed instruction. (Count)
system.cpu0.commitStats0.committedInstType::FloatMisc            0      0.00%     65.09% # Class of committed instruction. (Count)
system.cpu0.commitStats0.committedInstType::FloatSqrt            0      0.00%     65.09% # Class of committed instruction. (Count)
system.cpu0.commitStats0.committedInstType::SimdAdd        18004      0.01%     65.09% # Class of committed instruction. (Count)
system.cpu0.commitStats0.committedInstType::SimdAddAcc            0      0.00%     65.09% # Class of committed instruction. (Count)
system.cpu0.commitStats0.committedInstType::SimdAlu      5453132      2.24%     67.34% # Class of committed instruction. (Count)
system.cpu0.commitStats0.committedInstType::SimdCmp           62      0.00%     67.34% # Class of committed instruction. (Count)
system.cpu0.commitStats0.committedInstType::SimdCvt       527810      0.22%     67.56% # Class of committed instruction. (Count)
system.cpu0.commitStats0.committedInstType::SimdMisc     10876506      4.48%     72.03% # Class of committed instruction. (Count)
[...]
system.ruby.network.routers4.throttle00.avg_msg_wait_time          nan                       # Average time a message took to be forwarded (Ratio)
system.ruby.network.routers4.throttle00.avg_bandwidth         0.00                       # Average bandwidth (GB/s) (Ratio)
system.ruby.network.routers4.throttle00.avg_useful_bandwidth         0.00                       # Average usefull (only data) bandwidth (GB/s) (Ratio)
system.ruby.network.routers4.throttle01.acc_link_utilization            0                       # Accumulated link utilization (Count)
system.ruby.network.routers4.throttle01.link_utilization            0                       # Average link utilization (Ratio)
system.ruby.network.routers4.throttle01.total_msg_count            0                       # Total number of messages forwarded by this switch (Count)
system.ruby.network.routers4.throttle01.total_msg_bytes            0                       # Total number of bytes forwarded by this switch (Byte)
system.ruby.network.routers4.throttle01.total_data_msg_bytes            0                       # Total number of data bytes forwarded by this switch (Byte)
system.ruby.network.routers4.throttle01.total_msg_wait_time            0                       # Total time spend forwarding messages (Tick)
system.ruby.network.routers4.throttle01.total_stall_cy            0                       # Total time spent blocked on any output link (Cycle)
system.ruby.network.routers4.throttle01.total_bw_sat_cy            0                       # Total time bandwidth was saturated on any output link (Cycle)
system.ruby.network.routers4.throttle01.avg_msg_wait_time          nan                       # Average time a message took to be forwarded (Ratio)
system.ruby.network.routers4.throttle01.avg_bandwidth         0.00                       # Average bandwidth (GB/s) (Ratio)
system.ruby.network.routers4.throttle01.avg_useful_bandwidth         0.00                       # Average usefull (only data) bandwidth (GB/s) (Ratio)
system.ruby.network.routers5.percent_links_utilized            0                       (Unspecified)
system.ruby.network.routers5.power_state.pwrStateResidencyTicks::UNDEFINED 663996853212                       # Cumulative time (in ticks) in various power states (Tick)
system.ruby.network.routers5.throttle00.acc_link_utilization            0                       # Accumulated link utilization (Count)
system.ruby.network.routers5.throttle00.link_utilization            0                       # Average link utilization (Ratio)
system.ruby.network.routers5.throttle00.total_msg_count            0                       # Total number of messages forwarded by this switch (Count)
system.ruby.network.routers5.throttle00.total_msg_bytes            0                       # Total number of bytes forwarded by this switch (Byte)
system.ruby.network.routers5.throttle00.total_data_msg_bytes            0                       # Total number of data bytes forwarded by this switch (Byte)
system.ruby.network.routers5.throttle00.total_msg_wait_time            0                       # Total time spend forwarding messages (Tick)
system.ruby.network.routers5.throttle00.total_stall_cy            0                       # Total time spent blocked on any output link (Cycle)
system.ruby.network.routers5.throttle00.total_bw_sat_cy            0                       # Total time bandwidth was saturated on any output link (Cycle)
system.ruby.network.routers5.throttle00.avg_msg_wait_time          nan                       # Average time a message took to be forwarded (Ratio)
system.ruby.network.routers5.throttle00.avg_bandwidth         0.00                       # Average bandwidth (GB/s) (Ratio)
system.ruby.network.routers5.throttle00.avg_useful_bandwidth         0.00                       # Average usefull (only data) bandwidth (GB/s) (Ratio)
system.ruby.network.routers5.throttle01.acc_link_utilization            0                       # Accumulated link utilization (Count)
system.ruby.network.routers5.throttle01.link_utilization            0                       # Average link utilization (Ratio)
system.ruby.network.routers5.throttle01.total_msg_count            0                       # Total number of messages forwarded by this switch (Count)
system.ruby.network.routers5.throttle01.total_msg_bytes            0                       # Total number of bytes forwarded by this switch (Byte)
system.ruby.network.routers5.throttle01.total_data_msg_bytes            0                       # Total number of data bytes forwarded by this switch (Byte)
system.ruby.network.routers5.throttle01.total_msg_wait_time            0                       # Total time spend forwarding messages (Tick)
system.ruby.network.routers5.throttle01.total_stall_cy            0                       # Total time spent blocked on any output link (Cycle)
system.ruby.network.routers5.throttle01.total_bw_sat_cy            0                       # Total time bandwidth was saturated on any output link (Cycle)
system.ruby.network.routers5.throttle01.avg_msg_wait_time          nan                       # Average time a message took to be forwarded (Ratio)
system.ruby.network.routers5.throttle01.avg_bandwidth         0.00                       # Average bandwidth (GB/s) (Ratio)
system.ruby.network.routers5.throttle01.avg_useful_bandwidth         0.00                       # Average usefull (only data) bandwidth (GB/s) (Ratio)
system.ruby.network.routers6.percent_links_utilized            0                       (Unspecified)
system.ruby.network.routers6.power_state.pwrStateResidencyTicks::UNDEFINED 663996853212                       # Cumulative time (in ticks) in various power states (Tick)
system.ruby.network.routers6.throttle00.acc_link_utilization            0                       # Accumulated link utilization (Count)
system.ruby.network.routers6.throttle00.link_utilization            0                       # Average link utilization (Ratio)
system.ruby.network.routers6.throttle00.total_msg_count            0                       # Total number of messages forwarded by this switch (Count)
system.ruby.network.routers6.throttle00.total_msg_bytes            0                       # Total number of bytes forwarded by this switch (Byte)
system.ruby.network.routers6.throttle00.total_data_msg_bytes            0                       # Total number of data bytes forwarded by this switch (Byte)
system.ruby.network.routers6.throttle00.total_msg_wait_time            0                       # Total time spend forwarding messages (Tick)
system.ruby.network.routers6.throttle00.total_stall_cy            0                       # Total time spent blocked on any output link (Cycle)
system.ruby.network.routers6.throttle00.total_bw_sat_cy            0                       # Total time bandwidth was saturated on any output link (Cycle)
system.ruby.network.routers6.throttle00.avg_msg_wait_time          nan                       # Average time a message took to be forwarded (Ratio)
system.ruby.network.routers6.throttle00.avg_bandwidth         0.00                       # Average bandwidth (GB/s) (Ratio)
system.ruby.network.routers6.throttle00.avg_useful_bandwidth         0.00                       # Average usefull (only data) bandwidth (GB/s) (Ratio)
system.ruby.network.routers6.throttle01.acc_link_utilization            0                       # Accumulated link utilization (Count)
system.ruby.network.routers6.throttle01.link_utilization            0                       # Average link utilization (Ratio)
system.ruby.network.routers6.throttle01.total_msg_count            0                       # Total number of messages forwarded by this switch (Count)
system.ruby.network.routers6.throttle01.total_msg_bytes            0                       # Total number of bytes forwarded by this switch (Byte)
system.ruby.network.routers6.throttle01.total_data_msg_bytes            0                       # Total number of data bytes forwarded by this switch (Byte)
system.ruby.network.routers6.throttle01.total_msg_wait_time            0                       # Total time spend forwarding messages (Tick)
system.ruby.network.routers6.throttle01.total_stall_cy            0                       # Total time spent blocked on any output link (Cycle)
system.ruby.network.routers6.throttle01.total_bw_sat_cy            0                       # Total time bandwidth was saturated on any output link (Cycle)
system.ruby.network.routers6.throttle01.avg_msg_wait_time          nan                       # Average time a message took to be forwarded (Ratio)
system.ruby.network.routers6.throttle01.avg_bandwidth         0.00                       # Average bandwidth (GB/s) (Ratio)
system.ruby.network.routers6.throttle01.avg_useful_bandwidth         0.00                       # Average usefull (only data) bandwidth (GB/s) (Ratio)
system.ruby.network.routers7.percent_links_utilized            0                       (Unspecified)
system.ruby.network.routers7.power_state.pwrStateResidencyTicks::UNDEFINED 663996853212                       # Cumulative time (in ticks) in various power states (Tick)
system.ruby.network.routers7.throttle00.acc_link_utilization            0                       # Accumulated link utilization (Count)
system.ruby.network.routers7.throttle00.link_utilization            0                       # Average link utilization (Ratio)
system.ruby.network.routers7.throttle00.total_msg_count            0                       # Total number of messages forwarded by this switch (Count)
system.ruby.network.routers7.throttle00.total_msg_bytes            0                       # Total number of bytes forwarded by this switch (Byte)
system.ruby.network.routers7.throttle00.total_data_msg_bytes            0                       # Total number of data bytes forwarded by this switch (Byte)
system.ruby.network.routers7.throttle00.total_msg_wait_time            0                       # Total time spend forwarding messages (Tick)
system.ruby.network.routers7.throttle00.total_stall_cy            0                       # Total time spent blocked on any output link (Cycle)
system.ruby.network.routers7.throttle00.total_bw_sat_cy            0                       # Total time bandwidth was saturated on any output link (Cycle)
system.ruby.network.routers7.throttle00.avg_msg_wait_time          nan                       # Average time a message took to be forwarded (Ratio)
system.ruby.network.routers7.throttle00.avg_bandwidth         0.00                       # Average bandwidth (GB/s) (Ratio)
system.ruby.network.routers7.throttle00.avg_useful_bandwidth         0.00                       # Average usefull (only data) bandwidth (GB/s) (Ratio)
system.ruby.network.routers7.throttle01.acc_link_utilization            0                       # Accumulated link utilization (Count)
system.ruby.network.routers7.throttle01.link_utilization            0                       # Average link utilization (Ratio)
system.ruby.network.routers7.throttle01.total_msg_count            0                       # Total number of messages forwarded by this switch (Count)
system.ruby.network.routers7.throttle01.total_msg_bytes            0                       # Total number of bytes forwarded by this switch (Byte)
system.ruby.network.routers7.throttle01.total_data_msg_bytes            0                       # Total number of data bytes forwarded by this switch (Byte)
system.ruby.network.routers7.throttle01.total_msg_wait_time            0                       # Total time spend forwarding messages (Tick)
system.ruby.network.routers7.throttle01.total_stall_cy            0                       # Total time spent blocked on any output link (Cycle)
system.ruby.network.routers7.throttle01.total_bw_sat_cy            0                       # Total time bandwidth was saturated on any output link (Cycle)
system.ruby.network.routers7.throttle01.avg_msg_wait_time          nan                       # Average time a message took to be forwarded (Ratio)
system.ruby.network.routers7.throttle01.avg_bandwidth         0.00                       # Average bandwidth (GB/s) (Ratio)
system.ruby.network.routers7.throttle01.avg_useful_bandwidth         0.00                       # Average usefull (only data) bandwidth (GB/s) (Ratio)
system.ruby.network.routers8.percent_links_utilized            0                       (Unspecified)
system.ruby.network.routers8.power_state.pwrStateResidencyTicks::UNDEFINED 663996853212                       # Cumulative time (in ticks) in various power states (Tick)
system.ruby.network.routers8.throttle00.acc_link_utilization            0                       # Accumulated link utilization (Count)
system.ruby.network.routers8.throttle00.link_utilization            0                       # Average link utilization (Ratio)
system.ruby.network.routers8.throttle00.total_msg_count            0                       # Total number of messages forwarded by this switch (Count)
system.ruby.network.routers8.throttle00.total_msg_bytes            0                       # Total number of bytes forwarded by this switch (Byte)
system.ruby.network.routers8.throttle00.total_data_msg_bytes            0                       # Total number of data bytes forwarded by this switch (Byte)
system.ruby.network.routers8.throttle00.total_msg_wait_time            0                       # Total time spend forwarding messages (Tick)
system.ruby.network.routers8.throttle00.total_stall_cy            0                       # Total time spent blocked on any output link (Cycle)
system.ruby.network.routers8.throttle00.total_bw_sat_cy            0                       # Total time bandwidth was saturated on any output link (Cycle)
system.ruby.network.routers8.throttle00.avg_msg_wait_time          nan                       # Average time a message took to be forwarded (Ratio)
system.ruby.network.routers8.throttle00.avg_bandwidth         0.00                       # Average bandwidth (GB/s) (Ratio)
system.ruby.network.routers8.throttle00.avg_useful_bandwidth         0.00                       # Average usefull (only data) bandwidth (GB/s) (Ratio)
system.ruby.network.routers8.throttle01.acc_link_utilization            0                       # Accumulated link utilization (Count)
system.ruby.network.routers8.throttle01.link_utilization            0                       # Average link utilization (Ratio)
system.ruby.network.routers8.throttle01.total_msg_count            0                       # Total number of messages forwarded by this switch (Count)
system.ruby.network.routers8.throttle01.total_msg_bytes            0                       # Total number of bytes forwarded by this switch (Byte)
system.ruby.network.routers8.throttle01.total_data_msg_bytes            0                       # Total number of data bytes forwarded by this switch (Byte)
system.ruby.network.routers8.throttle01.total_msg_wait_time            0                       # Total time spend forwarding messages (Tick)
system.ruby.network.routers8.throttle01.total_stall_cy            0                       # Total time spent blocked on any output link (Cycle)
system.ruby.network.routers8.throttle01.total_bw_sat_cy            0                       # Total time bandwidth was saturated on any output link (Cycle)
system.ruby.network.routers8.throttle01.avg_msg_wait_time          nan                       # Average time a message took to be forwarded (Ratio)
system.ruby.network.routers8.throttle01.avg_bandwidth         0.00                       # Average bandwidth (GB/s) (Ratio)
system.ruby.network.routers8.throttle01.avg_useful_bandwidth         0.00                       # Average usefull (only data) bandwidth (GB/s) (Ratio)
system.ruby.network.routers9.percent_links_utilized            0                       (Unspecified)
system.ruby.network.routers9.power_state.pwrStateResidencyTicks::UNDEFINED 663996853212                       # Cumulative time (in ticks) in various power states (Tick)
system.ruby.network.routers9.throttle00.acc_link_utilization            0                       # Accumulated link utilization (Count)
system.ruby.network.routers9.throttle00.link_utilization            0                       # Average link utilization (Ratio)
system.ruby.network.routers9.throttle00.total_msg_count            0                       # Total number of messages forwarded by this switch (Count)
system.ruby.network.routers9.throttle00.total_msg_bytes            0                       # Total number of bytes forwarded by this switch (Byte)
system.ruby.network.routers9.throttle00.total_data_msg_bytes            0                       # Total number of data bytes forwarded by this switch (Byte)
system.ruby.network.routers9.throttle00.total_msg_wait_time            0                       # Total time spend forwarding messages (Tick)
system.ruby.network.routers9.throttle00.total_stall_cy            0                       # Total time spent blocked on any output link (Cycle)
system.ruby.network.routers9.throttle00.total_bw_sat_cy            0                       # Total time bandwidth was saturated on any output link (Cycle)
system.ruby.network.routers9.throttle00.avg_msg_wait_time          nan                       # Average time a message took to be forwarded (Ratio)
system.ruby.network.routers9.throttle00.avg_bandwidth         0.00                       # Average bandwidth (GB/s) (Ratio)
system.ruby.network.routers9.throttle00.avg_useful_bandwidth         0.00                       # Average usefull (only data) bandwidth (GB/s) (Ratio)
system.ruby.network.routers9.throttle01.acc_link_utilization            0                       # Accumulated link utilization (Count)
system.ruby.network.routers9.throttle01.link_utilization            0                       # Average link utilization (Ratio)
system.ruby.network.routers9.throttle01.total_msg_count            0                       # Total number of messages forwarded by this switch (Count)
system.ruby.network.routers9.throttle01.total_msg_bytes            0                       # Total number of bytes forwarded by this switch (Byte)
system.ruby.network.routers9.throttle01.total_data_msg_bytes            0                       # Total number of data bytes forwarded by this switch (Byte)
system.ruby.network.routers9.throttle01.total_msg_wait_time            0                       # Total time spend forwarding messages (Tick)
system.ruby.network.routers9.throttle01.total_stall_cy            0                       # Total time spent blocked on any output link (Cycle)
system.ruby.network.routers9.throttle01.total_bw_sat_cy            0                       # Total time bandwidth was saturated on any output link (Cycle)
system.ruby.network.routers9.throttle01.avg_msg_wait_time          nan                       # Average time a message took to be forwarded (Ratio)
system.ruby.network.routers9.throttle01.avg_bandwidth         0.00                       # Average bandwidth (GB/s) (Ratio)
system.ruby.network.routers9.throttle01.avg_useful_bandwidth         0.00                       # Average usefull (only data) bandwidth (GB/s) (Ratio)
system.ruby.power_state.pwrStateResidencyTicks::UNDEFINED 663996853212                       # Cumulative time (in ticks) in various power states (Tick)
system.sys_port_proxy.power_state.pwrStateResidencyTicks::UNDEFINED 663996853212                       # Cumulative time (in ticks) in various power states (Tick)
system.voltage_domain.voltage                       1                       # Voltage in Volts (Volt)
system.workload.inst.arm                            0                       # number of arm instructions executed (Count)
system.workload.inst.quiesce                        0                       # number of quiesce instructions executed (Count)

---------- End Simulation Statistics   ----------
