
---------- Begin Simulation Statistics ----------
simSeconds                                   0.204647                       # Number of seconds simulated (Second)
simTicks                                 204646979628                       # Number of ticks simulated (Tick)
finalTick                                204646979628                       # Number of ticks from beginning of simulation (restored from checkpoints and never reset) (Tick)
simFreq                                  1000000000000                       # The number of ticks per simulated second ((Tick/Second))
hostSeconds                                  19236.61                       # Real time elapsed on the host (Second)
hostTickRate                                 10638414                       # The number of ticks simulated per host second (ticks/s) ((Tick/Second))
hostMemory                                    2644344                       # Number of bytes of host memory used (Byte)
simInsts                                   1519176306                       # Number of instructions simulated (Count)
simOps                                     2655103739                       # Number of ops (including micro ops) simulated (Count)
hostInstRate                                    78973                       # Simulator instruction rate (inst/s) ((Count/Second))
hostOpRate                                     138023                       # Simulator op (including micro ops) rate (op/s) ((Count/Second))
system.clk_domain.clock                          1000                       # Clock period in ticks (Tick)
system.cpu0.numCycles                        11791192                       # Number of cpu cycles simulated (Cycle)
system.cpu0.cpi                              1.148649                       # CPI: cycles per instruction (core level) ((Cycle/Count))
system.cpu0.ipc                              0.870588                       # IPC: instructions per cycle (core level) ((Count/Cycle))
system.cpu0.numWorkItemsStarted                     0                       # Number of work items this cpu started (Count)
system.cpu0.numWorkItemsCompleted                   0                       # Number of work items this cpu completed (Count)
system.cpu0.instsAdded                       26654000                       # Number of instructions added to the IQ (excludes non-spec) (Count)
system.cpu0.nonSpecInstsAdded                   50550                       # Number of non-speculative instructions added to the IQ (Count)
system.cpu0.instsIssued                      25877046                       # Number of instructions issued (Count)
system.cpu0.squashedInstsIssued                 49884                       # Number of squashed instructions issued (Count)
system.cpu0.squashedInstsExamined             2536400                       # Number of squashed instructions iterated over during squash; mainly for profiling (Count)
system.cpu0.squashedOperandsExamined          4838835                       # Number of squashed operands that are examined and possibly removed from graph (Count)
system.cpu0.squashedNonSpecRemoved              14637                       # Number of squashed non-spec instructions that were removed (Count)
system.cpu0.numIssuedDist::samples           11661502                       # Number of insts issued each cycle (Count)
system.cpu0.numIssuedDist::mean              2.219015                       # Number of insts issued each cycle (Count)
system.cpu0.numIssuedDist::stdev             2.007698                       # Number of insts issued each cycle (Count)
system.cpu0.numIssuedDist::underflows               0      0.00%      0.00% # Number of insts issued each cycle (Count)
system.cpu0.numIssuedDist::0                  3094977     26.54%     26.54% # Number of insts issued each cycle (Count)
system.cpu0.numIssuedDist::1                  1907736     16.36%     42.90% # Number of insts issued each cycle (Count)
system.cpu0.numIssuedDist::2                  2045876     17.54%     60.44% # Number of insts issued each cycle (Count)
system.cpu0.numIssuedDist::3                  1747352     14.98%     75.43% # Number of insts issued each cycle (Count)
system.cpu0.numIssuedDist::4                  1168384     10.02%     85.45% # Number of insts issued each cycle (Count)
system.cpu0.numIssuedDist::5                   743968      6.38%     91.83% # Number of insts issued each cycle (Count)
system.cpu0.numIssuedDist::6                   532186      4.56%     96.39% # Number of insts issued each cycle (Count)
system.cpu0.numIssuedDist::7                   319174      2.74%     99.13% # Number of insts issued each cycle (Count)
system.cpu0.numIssuedDist::8                   101849      0.87%    100.00% # Number of insts issued each cycle (Count)
system.cpu0.numIssuedDist::overflows                0      0.00%    100.00% # Number of insts issued each cycle (Count)
system.cpu0.numIssuedDist::min_value                0                       # Number of insts issued each cycle (Count)
system.cpu0.numIssuedDist::max_value                8                       # Number of insts issued each cycle (Count)
system.cpu0.numIssuedDist::total             11661502                       # Number of insts issued each cycle (Count)
system.cpu0.statFuBusy::No_OpClass                  0      0.00%      0.00% # attempts to use FU when none available (Count)
system.cpu0.statFuBusy::IntAlu                 125163     47.26%     47.26% # attempts to use FU when none available (Count)
system.cpu0.statFuBusy::IntMult                     0      0.00%     47.26% # attempts to use FU when none available (Count)
system.cpu0.statFuBusy::IntDiv                      0      0.00%     47.26% # attempts to use FU when none available (Count)
system.cpu0.statFuBusy::FloatAdd                    0      0.00%     47.26% # attempts to use FU when none available (Count)
system.cpu0.statFuBusy::FloatCmp                    0      0.00%     47.26% # attempts to use FU when none available (Count)
system.cpu0.statFuBusy::FloatCvt                    0      0.00%     47.26% # attempts to use FU when none available (Count)
system.cpu0.statFuBusy::FloatMult                   0      0.00%     47.26% # attempts to use FU when none available (Count)
system.cpu0.statFuBusy::FloatMultAcc                0      0.00%     47.26% # attempts to use FU when none available (Count)
system.cpu0.statFuBusy::FloatDiv                    0      0.00%     47.26% # attempts to use FU when none available (Count)
system.cpu0.statFuBusy::FloatMisc                   0      0.00%     47.26% # attempts to use FU when none available (Count)
system.cpu0.statFuBusy::FloatSqrt                   0      0.00%     47.26% # attempts to use FU when none available (Count)
system.cpu0.statFuBusy::SimdAdd                     0      0.00%     47.26% # attempts to use FU when none available (Count)
system.cpu0.statFuBusy::SimdAddAcc                  0      0.00%     47.26% # attempts to use FU when none available (Count)
system.cpu0.statFuBusy::SimdAlu                     0      0.00%     47.26% # attempts to use FU when none available (Count)
system.cpu0.statFuBusy::SimdCmp                     0      0.00%     47.26% # attempts to use FU when none available (Count)
system.cpu0.statFuBusy::SimdCvt                     0      0.00%     47.26% # attempts to use FU when none available (Count)
system.cpu0.statFuBusy::SimdMisc                    2      0.00%     47.26% # attempts to use FU when none available (Count)
system.cpu0.statFuBusy::SimdMult                    0      0.00%     47.26% # attempts to use FU when none available (Count)
system.cpu0.statFuBusy::SimdMultAcc                 0      0.00%     47.26% # attempts to use FU when none available (Count)
system.cpu0.statFuBusy::SimdMatMultAcc              0      0.00%     47.26% # attempts to use FU when none available (Count)
system.cpu0.statFuBusy::SimdShift                   0      0.00%     47.26% # attempts to use FU when none available (Count)
system.cpu0.statFuBusy::SimdShiftAcc                0      0.00%     47.26% # attempts to use FU when none available (Count)
system.cpu0.statFuBusy::SimdDiv                     0      0.00%     47.26% # attempts to use FU when none available (Count)
system.cpu0.statFuBusy::SimdSqrt                    0      0.00%     47.26% # attempts to use FU when none available (Count)
system.cpu0.statFuBusy::SimdFloatAdd                0      0.00%     47.26% # attempts to use FU when none available (Count)
system.cpu0.statFuBusy::SimdFloatAlu                0      0.00%     47.26% # attempts to use FU when none available (Count)
system.cpu0.statFuBusy::SimdFloatCmp                0      0.00%     47.26% # attempts to use FU when none available (Count)
system.cpu0.statFuBusy::SimdFloatCvt                0      0.00%     47.26% # attempts to use FU when none available (Count)
system.cpu0.statFuBusy::SimdFloatDiv                0      0.00%     47.26% # attempts to use FU when none available (Count)
system.cpu0.statFuBusy::SimdFloatMisc               0      0.00%     47.26% # attempts to use FU when none available (Count)
system.cpu0.statFuBusy::SimdFloatMult               0      0.00%     47.26% # attempts to use FU when none available (Count)
system.cpu0.statFuBusy::SimdFloatMultAcc            0      0.00%     47.26% # attempts to use FU when none available (Count)
system.cpu0.statFuBusy::SimdFloatMatMultAcc            0      0.00%     47.26% # attempts to use FU when none available (Count)
system.cpu0.statFuBusy::SimdFloatSqrt               0      0.00%     47.26% # attempts to use FU when none available (Count)
system.cpu0.statFuBusy::SimdReduceAdd               0      0.00%     47.26% # attempts to use FU when none available (Count)
system.cpu0.statFuBusy::SimdReduceAlu               0      0.00%     47.26% # attempts to use FU when none available (Count)
system.cpu0.statFuBusy::SimdReduceCmp               0      0.00%     47.26% # attempts to use FU when none available (Count)
system.cpu0.statFuBusy::SimdFloatReduceAdd            0      0.00%     47.26% # attempts to use FU when none available (Count)
system.cpu0.statFuBusy::SimdFloatReduceCmp            0      0.00%     47.26% # attempts to use FU when none available (Count)
system.cpu0.statFuBusy::SimdAes                     0      0.00%     47.26% # attempts to use FU when none available (Count)
system.cpu0.statFuBusy::SimdAesMix                  0      0.00%     47.26% # attempts to use FU when none available (Count)
system.cpu0.statFuBusy::SimdSha1Hash                0      0.00%     47.26% # attempts to use FU when none available (Count)
system.cpu0.statFuBusy::SimdSha1Hash2               0      0.00%     47.26% # attempts to use FU when none available (Count)
system.cpu0.statFuBusy::SimdSha256Hash              0      0.00%     47.26% # attempts to use FU when none available (Count)
system.cpu0.statFuBusy::SimdSha256Hash2             0      0.00%     47.26% # attempts to use FU when none available (Count)
system.cpu0.statFuBusy::SimdShaSigma2               0      0.00%     47.26% # attempts to use FU when none available (Count)
system.cpu0.statFuBusy::SimdShaSigma3               0      0.00%     47.26% # attempts to use FU when none available (Count)
system.cpu0.statFuBusy::SimdPredAlu                 0      0.00%     47.26% # attempts to use FU when none available (Count)
system.cpu0.statFuBusy::Matrix                      0      0.00%     47.26% # attempts to use FU when none available (Count)
system.cpu0.statFuBusy::MatrixMov                   0      0.00%     47.26% # attempts to use FU when none available (Count)
system.cpu0.statFuBusy::MatrixOP                    0      0.00%     47.26% # attempts to use FU when none available (Count)
system.cpu0.statFuBusy::MemRead                 66413     25.08%     72.34% # attempts to use FU when none available (Count)
system.cpu0.statFuBusy::MemWrite                50799     19.18%     91.52% # attempts to use FU when none available (Count)
system.cpu0.statFuBusy::FloatMemRead            12263      4.63%     96.15% # attempts to use FU when none available (Count)
system.cpu0.statFuBusy::FloatMemWrite           10185      3.85%    100.00% # attempts to use FU when none available (Count)
system.cpu0.statFuBusy::IprAccess                   0      0.00%    100.00% # attempts to use FU when none available (Count)
system.cpu0.statFuBusy::InstPrefetch                0      0.00%    100.00% # attempts to use FU when none available (Count)
system.cpu0.statFuBusy::SimdUnitStrideLoad            0      0.00%    100.00% # attempts to use FU when none available (Count)
system.cpu0.statFuBusy::SimdUnitStrideStore            0      0.00%    100.00% # attempts to use FU when none available (Count)
system.cpu0.statFuBusy::SimdUnitStrideMaskLoad            0      0.00%    100.00% # attempts to use FU when none available (Count)
system.cpu0.statFuBusy::SimdUnitStrideMaskStore            0      0.00%    100.00% # attempts to use FU when none available (Count)
system.cpu0.statFuBusy::SimdStridedLoad             0      0.00%    100.00% # attempts to use FU when none available (Count)
system.cpu0.statFuBusy::SimdStridedStore            0      0.00%    100.00% # attempts to use FU when none available (Count)
system.cpu0.statFuBusy::SimdIndexedLoad             0      0.00%    100.00% # attempts to use FU when none available (Count)
system.cpu0.statFuBusy::SimdIndexedStore            0      0.00%    100.00% # attempts to use FU when none available (Count)
system.cpu0.statFuBusy::SimdWholeRegisterLoad            0      0.00%    100.00% # attempts to use FU when none available (Count)
system.cpu0.statFuBusy::SimdWholeRegisterStore            0      0.00%    100.00% # attempts to use FU when none available (Count)
system.cpu0.statFuBusy::SimdUnitStrideFaultOnlyFirstLoad            0      0.00%    100.00% # attempts to use FU when none available (Count)
system.cpu0.statFuBusy::SimdUnitStrideSegmentedLoad            0      0.00%    100.00% # attempts to use FU when none available (Count)
system.cpu0.statFuBusy::SimdUnitStrideSegmentedStore            0      0.00%    100.00% # attempts to use FU when none available (Count)
system.cpu0.statFuBusy::SimdExt                     0      0.00%    100.00% # attempts to use FU when none available (Count)
system.cpu0.statFuBusy::SimdFloatExt                0      0.00%    100.00% # attempts to use FU when none available (Count)
system.cpu0.statFuBusy::SimdConfig                  0      0.00%    100.00% # attempts to use FU when none available (Count)
system.cpu0.statIssuedInstType_0::No_OpClass       141938      0.55%      0.55% # Number of instructions issued per FU type, per thread (Count)
system.cpu0.statIssuedInstType_0::IntAlu     19780427     76.44%     76.99% # Number of instructions issued per FU type, per thread (Count)
system.cpu0.statIssuedInstType_0::IntMult       184512      0.71%     77.70% # Number of instructions issued per FU type, per thread (Count)
system.cpu0.statIssuedInstType_0::IntDiv      1212941      4.69%     82.39% # Number of instructions issued per FU type, per thread (Count)
system.cpu0.statIssuedInstType_0::FloatAdd        15064      0.06%     82.45% # Number of instructions issued per FU type, per thread (Count)
system.cpu0.statIssuedInstType_0::FloatCmp            0      0.00%     82.45% # Number of instructions issued per FU type, per thread (Count)
system.cpu0.statIssuedInstType_0::FloatCvt            0      0.00%     82.45% # Number of instructions issued per FU type, per thread (Count)
system.cpu0.statIssuedInstType_0::FloatMult            0      0.00%     82.45% # Number of instructions issued per FU type, per thread (Count)
system.cpu0.statIssuedInstType_0::FloatMultAcc            0      0.00%     82.45% # Number of instructions issued per FU type, per thread (Count)
system.cpu0.statIssuedInstType_0::FloatDiv            0      0.00%     82.45% # Number of instructions issued per FU type, per thread (Count)
system.cpu0.statIssuedInstType_0::FloatMisc            0      0.00%     82.45% # Number of instructions issued per FU type, per thread (Count)
system.cpu0.statIssuedInstType_0::FloatSqrt            0      0.00%     82.45% # Number of instructions issued per FU type, per thread (Count)
system.cpu0.statIssuedInstType_0::SimdAdd           10      0.00%     82.45% # Number of instructions issued per FU type, per thread (Count)
system.cpu0.statIssuedInstType_0::SimdAddAcc            0      0.00%     82.45% # Number of instructions issued per FU type, per thread (Count)
system.cpu0.statIssuedInstType_0::SimdAlu        14189      0.05%     82.50% # Number of instructions issued per FU type, per thread (Count)
system.cpu0.statIssuedInstType_0::SimdCmp            0      0.00%     82.50% # Number of instructions issued per FU type, per thread (Count)
system.cpu0.statIssuedInstType_0::SimdCvt           10      0.00%     82.50% # Number of instructions issued per FU type, per thread (Count)
system.cpu0.statIssuedInstType_0::SimdMisc        29209      0.11%     82.61% # Number of instructions issued per FU type, per thread (Count)
system.cpu0.statIssuedInstType_0::SimdMult            0      0.00%     82.61% # Number of instructions issued per FU type, per thread (Count)
system.cpu0.statIssuedInstType_0::SimdMultAcc            0      0.00%     82.61% # Number of instructions issued per FU type, per thread (Count)
system.cpu0.statIssuedInstType_0::SimdMatMultAcc            0      0.00%     82.61% # Number of instructions issued per FU type, per thread (Count)
system.cpu0.statIssuedInstType_0::SimdShift            6      0.00%     82.61% # Number of instructions issued per FU type, per thread (Count)
system.cpu0.statIssuedInstType_0::SimdShiftAcc            0      0.00%     82.61% # Number of instructions issued per FU type, per thread (Count)
system.cpu0.statIssuedInstType_0::SimdDiv            0      0.00%     82.61% # Number of instructions issued per FU type, per thread (Count)
system.cpu0.statIssuedInstType_0::SimdSqrt            0      0.00%     82.61% # Number of instructions issued per FU type, per thread (Count)
system.cpu0.statIssuedInstType_0::SimdFloatAdd           45      0.00%     82.62% # Number of instructions issued per FU type, per thread (Count)
system.cpu0.statIssuedInstType_0::SimdFloatAlu            0      0.00%     82.62% # Number of instructions issued per FU type, per thread (Count)
system.cpu0.statIssuedInstType_0::SimdFloatCmp            0      0.00%     82.62% # Number of instructions issued per FU type, per thread (Count)
system.cpu0.statIssuedInstType_0::SimdFloatCvt           16      0.00%     82.62% # Number of instructions issued per FU type, per thread (Count)
system.cpu0.statIssuedInstType_0::SimdFloatDiv            2      0.00%     82.62% # Number of instructions issued per FU type, per thread (Count)
system.cpu0.statIssuedInstType_0::SimdFloatMisc            0      0.00%     82.62% # Number of instructions issued per FU type, per thread (Count)
system.cpu0.statIssuedInstType_0::SimdFloatMult           24      0.00%     82.62% # Number of instructions issued per FU type, per thread (Count)
system.cpu0.statIssuedInstType_0::SimdFloatMultAcc            0      0.00%     82.62% # Number of instructions issued per FU type, per thread (Count)
system.cpu0.statIssuedInstType_0::SimdFloatMatMultAcc            0      0.00%     82.62% # Number of instructions issued per FU type, per thread (Count)
system.cpu0.statIssuedInstType_0::SimdFloatSqrt            0      0.00%     82.62% # Number of instructions issued per FU type, per thread (Count)
system.cpu0.statIssuedInstType_0::SimdReduceAdd            0      0.00%     82.62% # Number of instructions issued per FU type, per thread (Count)
system.cpu0.statIssuedInstType_0::SimdReduceAlu            0      0.00%     82.62% # Number of instructions issued per FU type, per thread (Count)
system.cpu0.statIssuedInstType_0::SimdReduceCmp            0      0.00%     82.62% # Number of instructions issued per FU type, per thread (Count)
system.cpu0.statIssuedInstType_0::SimdFloatReduceAdd            0      0.00%     82.62% # Number of instructions issued per FU type, per thread (Count)
system.cpu0.statIssuedInstType_0::SimdFloatReduceCmp            0      0.00%     82.62% # Number of instructions issued per FU type, per thread (Count)
system.cpu0.statIssuedInstType_0::SimdAes            0      0.00%     82.62% # Number of instructions issued per FU type, per thread (Count)
system.cpu0.statIssuedInstType_0::SimdAesMix            0      0.00%     82.62% # Number of instructions issued per FU type, per thread (Count)
system.cpu0.statIssuedInstType_0::SimdSha1Hash            0      0.00%     82.62% # Number of instructions issued per FU type, per thread (Count)
system.cpu0.statIssuedInstType_0::SimdSha1Hash2            0      0.00%     82.62% # Number of instructions issued per FU type, per thread (Count)
system.cpu0.statIssuedInstType_0::SimdSha256Hash            0      0.00%     82.62% # Number of instructions issued per FU type, per thread (Count)
system.cpu0.statIssuedInstType_0::SimdSha256Hash2            0      0.00%     82.62% # Number of instructions issued per FU type, per thread (Count)
system.cpu0.statIssuedInstType_0::SimdShaSigma2            0      0.00%     82.62% # Number of instructions issued per FU type, per thread (Count)
system.cpu0.statIssuedInstType_0::SimdShaSigma3            0      0.00%     82.62% # Number of instructions issued per FU type, per thread (Count)
system.cpu0.statIssuedInstType_0::SimdPredAlu            0      0.00%     82.62% # Number of instructions issued per FU type, per thread (Count)
system.cpu0.statIssuedInstType_0::Matrix            0      0.00%     82.62% # Number of instructions issued per FU type, per thread (Count)
system.cpu0.statIssuedInstType_0::MatrixMov            0      0.00%     82.62% # Number of instructions issued per FU type, per thread (Count)
system.cpu0.statIssuedInstType_0::MatrixOP            0      0.00%     82.62% # Number of instructions issued per FU type, per thread (Count)
system.cpu0.statIssuedInstType_0::MemRead      2527911      9.77%     92.38% # Number of instructions issued per FU type, per thread (Count)
system.cpu0.statIssuedInstType_0::MemWrite      1293333      5.00%     97.38% # Number of instructions issued per FU type, per thread (Count)
system.cpu0.statIssuedInstType_0::FloatMemRead       338884      1.31%     98.69% # Number of instructions issued per FU type, per thread (Count)
system.cpu0.statIssuedInstType_0::FloatMemWrite       338525      1.31%    100.00% # Number of instructions issued per FU type, per thread (Count)
system.cpu0.statIssuedInstType_0::IprAccess            0      0.00%    100.00% # Number of instructions issued per FU type, per thread (Count)
system.cpu0.statIssuedInstType_0::InstPrefetch            0      0.00%    100.00% # Number of instructions issued per FU type, per thread (Count)
system.cpu0.statIssuedInstType_0::SimdUnitStrideLoad            0      0.00%    100.00% # Number of instructions issued per FU type, per thread (Count)
system.cpu0.statIssuedInstType_0::SimdUnitStrideStore            0      0.00%    100.00% # Number of instructions issued per FU type, per thread (Count)
system.cpu0.statIssuedInstType_0::SimdUnitStrideMaskLoad            0      0.00%    100.00% # Number of instructions issued per FU type, per thread (Count)
system.cpu0.statIssuedInstType_0::SimdUnitStrideMaskStore            0      0.00%    100.00% # Number of instructions issued per FU type, per thread (Count)
system.cpu0.statIssuedInstType_0::SimdStridedLoad            0      0.00%    100.00% # Number of instructions issued per FU type, per thread (Count)
system.cpu0.statIssuedInstType_0::SimdStridedStore            0      0.00%    100.00% # Number of instructions issued per FU type, per thread (Count)
system.cpu0.statIssuedInstType_0::SimdIndexedLoad            0      0.00%    100.00% # Number of instructions issued per FU type, per thread (Count)
system.cpu0.statIssuedInstType_0::SimdIndexedStore            0      0.00%    100.00% # Number of instructions issued per FU type, per thread (Count)
system.cpu0.statIssuedInstType_0::SimdWholeRegisterLoad            0      0.00%    100.00% # Number of instructions issued per FU type, per thread (Count)
system.cpu0.statIssuedInstType_0::SimdWholeRegisterStore            0      0.00%    100.00% # Number of instructions issued per FU type, per thread (Count)
system.cpu0.statIssuedInstType_0::SimdUnitStrideFaultOnlyFirstLoad            0      0.00%    100.00% # Number of instructions issued per FU type, per thread (Count)
system.cpu0.statIssuedInstType_0::SimdUnitStrideSegmentedLoad            0      0.00%    100.00% # Number of instructions issued per FU type, per thread (Count)
system.cpu0.statIssuedInstType_0::SimdUnitStrideSegmentedStore            0      0.00%    100.00% # Number of instructions issued per FU type, per thread (Count)
system.cpu0.statIssuedInstType_0::SimdExt            0      0.00%    100.00% # Number of instructions issued per FU type, per thread (Count)
system.cpu0.statIssuedInstType_0::SimdFloatExt            0      0.00%    100.00% # Number of instructions issued per FU type, per thread (Count)
system.cpu0.statIssuedInstType_0::SimdConfig            0      0.00%    100.00% # Number of instructions issued per FU type, per thread (Count)
system.cpu0.statIssuedInstType_0::total      25877046                       # Number of instructions issued per FU type, per thread (Count)
system.cpu0.issueRate                        2.194608                       # Inst issue rate ((Count/Cycle))
system.cpu0.fuBusy                             264825                       # FU busy when requested (Count)
system.cpu0.fuBusyRate                       0.010234                       # FU busy rate (busy events/executed inst) ((Count/Count))
system.cpu0.intInstQueueReads                62210735                       # Number of integer instruction queue reads (Count)
system.cpu0.intInstQueueWrites               28381437                       # Number of integer instruction queue writes (Count)
system.cpu0.intInstQueueWakeupAccesses       24961941                       # Number of integer instruction queue wakeup accesses (Count)
system.cpu0.fpInstQueueReads                  1519568                       # Number of floating instruction queue reads (Count)
system.cpu0.fpInstQueueWrites                  869835                       # Number of floating instruction queue writes (Count)
system.cpu0.fpInstQueueWakeupAccesses          714243                       # Number of floating instruction queue wakeup accesses (Count)
system.cpu0.vecInstQueueReads                       0                       # Number of vector instruction queue reads (Count)
system.cpu0.vecInstQueueWrites                      0                       # Number of vector instruction queue writes (Count)
system.cpu0.vecInstQueueWakeupAccesses              0                       # Number of vector instruction queue wakeup accesses (Count)
system.cpu0.intAluAccesses                   25230023                       # Number of integer alu accesses (Count)
system.cpu0.fpAluAccesses                      769910                       # Number of floating point alu accesses (Count)
system.cpu0.vecAluAccesses                          0                       # Number of vector alu accesses (Count)
system.cpu0.numSquashedInsts                    72587                       # Number of squashed instructions skipped in execute (Count)
system.cpu0.numSwp                                  0                       # Number of swp insts executed (Count)
system.cpu0.timesIdled                            976                       # Number of times that the entire CPU went into an idle state and unscheduled itself (Count)
system.cpu0.idleCycles                         129690                       # Total number of cycles that the CPU has spent unscheduled due to idling (Cycle)
system.cpu0.quiesceCycles                   684286971                       # Total number of cycles that CPU has spent quiesced or waiting for an interrupt (Cycle)
system.cpu0.MemDepUnit__0.insertedLoads       2917936                       # Number of loads inserted to the mem dependence unit. (Count)
system.cpu0.MemDepUnit__0.insertedStores      1696878                       # Number of stores inserted to the mem dependence unit. (Count)
system.cpu0.MemDepUnit__0.conflictingLoads       339014                       # Number of conflicting loads. (Count)
system.cpu0.MemDepUnit__0.conflictingStores       237096                       # Number of conflicting stores. (Count)
system.cpu0.MemDepUnit__1.insertedLoads             0                       # Number of loads inserted to the mem dependence unit. (Count)
system.cpu0.MemDepUnit__1.insertedStores            0                       # Number of stores inserted to the mem dependence unit. (Count)
system.cpu0.MemDepUnit__1.conflictingLoads            0                       # Number of conflicting loads. (Count)
system.cpu0.MemDepUnit__1.conflictingStores            0                       # Number of conflicting stores. (Count)
system.cpu0.MemDepUnit__2.insertedLoads             0                       # Number of loads inserted to the mem dependence unit. (Count)
system.cpu0.MemDepUnit__2.insertedStores            0                       # Number of stores inserted to the mem dependence unit. (Count)
system.cpu0.MemDepUnit__2.conflictingLoads            0                       # Number of conflicting loads. (Count)
system.cpu0.MemDepUnit__2.conflictingStores            0                       # Number of conflicting stores. (Count)
system.cpu0.MemDepUnit__3.insertedLoads             0                       # Number of loads inserted to the mem dependence unit. (Count)
system.cpu0.MemDepUnit__3.insertedStores            0                       # Number of stores inserted to the mem dependence unit. (Count)
system.cpu0.MemDepUnit__3.conflictingLoads            0                       # Number of conflicting loads. (Count)
system.cpu0.MemDepUnit__3.conflictingStores            0                       # Number of conflicting stores. (Count)
system.cpu0.branchPred.lookups_0::NoBranch           23      0.00%      0.00% # Number of BP lookups (Count)
system.cpu0.branchPred.lookups_0::Return       167485      7.02%      7.02% # Number of BP lookups (Count)
system.cpu0.branchPred.lookups_0::CallDirect       176783      7.40%     14.42% # Number of BP lookups (Count)
system.cpu0.branchPred.lookups_0::CallIndirect          388      0.02%     14.44% # Number of BP lookups (Count)
system.cpu0.branchPred.lookups_0::DirectCond      1844026     77.24%     91.68% # Number of BP lookups (Count)
system.cpu0.branchPred.lookups_0::DirectUncond       164848      6.90%     98.58% # Number of BP lookups (Count)
system.cpu0.branchPred.lookups_0::IndirectCond            0      0.00%     98.58% # Number of BP lookups (Count)
system.cpu0.branchPred.lookups_0::IndirectUncond        33833      1.42%    100.00% # Number of BP lookups (Count)
system.cpu0.branchPred.lookups_0::total       2387386                       # Number of BP lookups (Count)
system.cpu0.branchPred.squashes_0::NoBranch           23      0.01%      0.01% # Number of branches that got squashed (completely removed) as an earlier branch was mispredicted. (Count)
system.cpu0.branchPred.squashes_0::Return        17322      5.47%      5.47% # Number of branches that got squashed (completely removed) as an earlier branch was mispredicted. (Count)
system.cpu0.branchPred.squashes_0::CallDirect        26923      8.50%     13.97% # Number of branches that got squashed (completely removed) as an earlier branch was mispredicted. (Count)
system.cpu0.branchPred.squashes_0::CallIndirect           80      0.03%     13.99% # Number of branches that got squashed (completely removed) as an earlier branch was mispredicted. (Count)
system.cpu0.branchPred.squashes_0::DirectCond       255857     80.73%     94.73% # Number of branches that got squashed (completely removed) as an earlier branch was mispredicted. (Count)
system.cpu0.branchPred.squashes_0::DirectUncond        15728      4.96%     99.69% # Number of branches that got squashed (completely removed) as an earlier branch was mispredicted. (Count)
system.cpu0.branchPred.squashes_0::IndirectCond            0      0.00%     99.69% # Number of branches that got squashed (completely removed) as an earlier branch was mispredicted. (Count)
system.cpu0.branchPred.squashes_0::IndirectUncond          980      0.31%    100.00% # Number of branches that got squashed (completely removed) as an earlier branch was mispredicted. (Count)
system.cpu0.branchPred.squashes_0::total       316913                       # Number of branches that got squashed (completely removed) as an earlier branch was mispredicted. (Count)
system.cpu0.branchPred.corrected_0::NoBranch            1      0.00%      0.00% # Number of branches that got corrected but not yet commited. Branches get corrected by decode or after execute. Also a branch misprediction can be detected out-of-order. Therefore, a corrected branch might not end up beeing committed in case an even earlier branch was mispredicted (Count)
system.cpu0.branchPred.corrected_0::Return           11      0.04%      0.05% # Number of branches that got corrected but not yet commited. Branches get corrected by decode or after execute. Also a branch misprediction can be detected out-of-order. Therefore, a corrected branch might not end up beeing committed in case an even earlier branch was mispredicted (Count)
system.cpu0.branchPred.corrected_0::CallDirect          851      3.45%      3.50% # Number of branches that got corrected but not yet commited. Branches get corrected by decode or after execute. Also a branch misprediction can be detected out-of-order. Therefore, a corrected branch might not end up beeing committed in case an even earlier branch was mispredicted (Count)
system.cpu0.branchPred.corrected_0::CallIndirect           76      0.31%      3.80% # Number of branches that got corrected but not yet commited. Branches get corrected by decode or after execute. Also a branch misprediction can be detected out-of-order. Therefore, a corrected branch might not end up beeing committed in case an even earlier branch was mispredicted (Count)
system.cpu0.branchPred.corrected_0::DirectCond        22861     92.61%     96.41% # Number of branches that got corrected but not yet commited. Branches get corrected by decode or after execute. Also a branch misprediction can be detected out-of-order. Therefore, a corrected branch might not end up beeing committed in case an even earlier branch was mispredicted (Count)
system.cpu0.branchPred.corrected_0::DirectUncond          670      2.71%     99.13% # Number of branches that got corrected but not yet commited. Branches get corrected by decode or after execute. Also a branch misprediction can be detected out-of-order. Therefore, a corrected branch might not end up beeing committed in case an even earlier branch was mispredicted (Count)
system.cpu0.branchPred.corrected_0::IndirectCond            0      0.00%     99.13% # Number of branches that got corrected but not yet commited. Branches get corrected by decode or after execute. Also a branch misprediction can be detected out-of-order. Therefore, a corrected branch might not end up beeing committed in case an even earlier branch was mispredicted (Count)
system.cpu0.branchPred.corrected_0::IndirectUncond          216      0.87%    100.00% # Number of branches that got corrected but not yet commited. Branches get corrected by decode or after execute. Also a branch misprediction can be detected out-of-order. Therefore, a corrected branch might not end up beeing committed in case an even earlier branch was mispredicted (Count)
system.cpu0.branchPred.corrected_0::total        24686                       # Number of branches that got corrected but not yet commited. Branches get corrected by decode or after execute. Also a branch misprediction can be detected out-of-order. Therefore, a corrected branch might not end up beeing committed in case an even earlier branch was mispredicted (Count)
system.cpu0.branchPred.earlyResteers_0::NoBranch            0                       # Number of branches that got redirected after decode. (Count)
system.cpu0.branchPred.earlyResteers_0::Return            0                       # Number of branches that got redirected after decode. (Count)
system.cpu0.branchPred.earlyResteers_0::CallDirect            0                       # Number of branches that got redirected after decode. (Count)
system.cpu0.branchPred.earlyResteers_0::CallIndirect            0                       # Number of branches that got redirected after decode. (Count)
system.cpu0.branchPred.earlyResteers_0::DirectCond            0                       # Number of branches that got redirected after decode. (Count)
system.cpu0.branchPred.earlyResteers_0::DirectUncond            0                       # Number of branches that got redirected after decode. (Count)
system.cpu0.branchPred.earlyResteers_0::IndirectCond            0                       # Number of branches that got redirected after decode. (Count)
system.cpu0.branchPred.earlyResteers_0::IndirectUncond            0                       # Number of branches that got redirected after decode. (Count)
system.cpu0.branchPred.earlyResteers_0::total            0                       # Number of branches that got redirected after decode. (Count)
system.cpu0.branchPred.committed_0::NoBranch            0      0.00%      0.00% # Number of branches finally committed  (Count)
system.cpu0.branchPred.committed_0::Return       150163      7.25%      7.25% # Number of branches finally committed  (Count)
system.cpu0.branchPred.committed_0::CallDirect       149860      7.24%     14.49% # Number of branches finally committed  (Count)
system.cpu0.branchPred.committed_0::CallIndirect          308      0.01%     14.51% # Number of branches finally committed  (Count)
system.cpu0.branchPred.committed_0::DirectCond      1588168     76.71%     91.21% # Number of branches finally committed  (Count)
system.cpu0.branchPred.committed_0::DirectUncond       149120      7.20%     98.41% # Number of branches finally committed  (Count)
system.cpu0.branchPred.committed_0::IndirectCond            0      0.00%     98.41% # Number of branches finally committed  (Count)
system.cpu0.branchPred.committed_0::IndirectUncond        32853      1.59%    100.00% # Number of branches finally committed  (Count)
system.cpu0.branchPred.committed_0::total      2070472                       # Number of branches finally committed  (Count)
system.cpu0.branchPred.mispredicted_0::NoBranch            0      0.00%      0.00% # Number of committed branches that were mispredicted. (Count)
system.cpu0.branchPred.mispredicted_0::Return            0      0.00%      0.00% # Number of committed branches that were mispredicted. (Count)
system.cpu0.branchPred.mispredicted_0::CallDirect          584      2.62%      2.62% # Number of committed branches that were mispredicted. (Count)
system.cpu0.branchPred.mispredicted_0::CallIndirect           71      0.32%      2.94% # Number of committed branches that were mispredicted. (Count)
system.cpu0.branchPred.mispredicted_0::DirectCond        20946     94.09%     97.03% # Number of committed branches that were mispredicted. (Count)
system.cpu0.branchPred.mispredicted_0::DirectUncond          473      2.12%     99.16% # Number of committed branches that were mispredicted. (Count)
system.cpu0.branchPred.mispredicted_0::IndirectCond            0      0.00%     99.16% # Number of committed branches that were mispredicted. (Count)
system.cpu0.branchPred.mispredicted_0::IndirectUncond          188      0.84%    100.00% # Number of committed branches that were mispredicted. (Count)
system.cpu0.branchPred.mispredicted_0::total        22262                       # Number of committed branches that were mispredicted. (Count)
system.cpu0.branchPred.targetProvider_0::NoTarget      1191920     49.93%     49.93% # The component providing the target for taken branches (Count)
system.cpu0.branchPred.targetProvider_0::BTB       994139     41.64%     91.57% # The component providing the target for taken branches (Count)
system.cpu0.branchPred.targetProvider_0::RAS       167485      7.02%     98.58% # The component providing the target for taken branches (Count)
system.cpu0.branchPred.targetProvider_0::Indirect        33842      1.42%    100.00% # The component providing the target for taken branches (Count)
system.cpu0.branchPred.targetProvider_0::total      2387386                       # The component providing the target for taken branches (Count)
system.cpu0.branchPred.targetWrong_0::NoBranch        11906     48.30%     48.30% # Number of branches where the target was incorrect or not available at prediction time. (Count)
system.cpu0.branchPred.targetWrong_0::Return        12631     51.25%     99.55% # Number of branches where the target was incorrect or not available at prediction time. (Count)
system.cpu0.branchPred.targetWrong_0::CallDirect           11      0.04%     99.59% # Number of branches where the target was incorrect or not available at prediction time. (Count)
system.cpu0.branchPred.targetWrong_0::CallIndirect          100      0.41%    100.00% # Number of branches where the target was incorrect or not available at prediction time. (Count)
system.cpu0.branchPred.targetWrong_0::DirectCond            0      0.00%    100.00% # Number of branches where the target was incorrect or not available at prediction time. (Count)
system.cpu0.branchPred.targetWrong_0::DirectUncond            0      0.00%    100.00% # Number of branches where the target was incorrect or not available at prediction time. (Count)
system.cpu0.branchPred.targetWrong_0::IndirectCond            0      0.00%    100.00% # Number of branches where the target was incorrect or not available at prediction time. (Count)
system.cpu0.branchPred.targetWrong_0::IndirectUncond            0      0.00%    100.00% # Number of branches where the target was incorrect or not available at prediction time. (Count)
system.cpu0.branchPred.targetWrong_0::total        24648                       # Number of branches where the target was incorrect or not available at prediction time. (Count)
system.cpu0.branchPred.condPredicted          1844049                       # Number of conditional branches predicted (Count)
system.cpu0.branchPred.condPredictedTaken       654960                       # Number of conditional branches predicted as taken (Count)
system.cpu0.branchPred.condIncorrect            24686                       # Number of conditional branches incorrect (Count)
system.cpu0.branchPred.predTakenBTBMiss          1467                       # Number of branches predicted taken but missed in BTB (Count)
system.cpu0.branchPred.NotTakenMispredicted        12292                       # Number branches predicted 'not taken' but turned out to be taken (Count)
system.cpu0.branchPred.TakenMispredicted        12394                       # Number branches predicted taken but are actually not taken (Count)
system.cpu0.branchPred.BTBLookups             2387386                       # Number of BTB lookups (Count)
system.cpu0.branchPred.BTBUpdates               11988                       # Number of BTB updates (Count)
system.cpu0.branchPred.BTBHits                1320920                       # Number of BTB hits (Count)
system.cpu0.branchPred.BTBHitRatio           0.553291                       # BTB Hit Ratio (Ratio)
system.cpu0.branchPred.BTBMispredicted           2132                       # Number BTB mispredictions. No target found or target wrong (Count)
system.cpu0.branchPred.indirectLookups          34221                       # Number of indirect predictor lookups. (Count)
system.cpu0.branchPred.indirectHits             33842                       # Number of indirect target hits. (Count)
system.cpu0.branchPred.indirectMisses             379                       # Number of indirect misses. (Count)
system.cpu0.branchPred.indirectMispredicted            0                       # Number of mispredicted indirect branches. (Count)
system.cpu0.branchPred.btb.lookups::NoBranch           23      0.00%      0.00% # Number of BTB lookups (Count)
system.cpu0.branchPred.btb.lookups::Return       167485      7.02%      7.02% # Number of BTB lookups (Count)
system.cpu0.branchPred.btb.lookups::CallDirect       176783      7.40%     14.42% # Number of BTB lookups (Count)
system.cpu0.branchPred.btb.lookups::CallIndirect          388      0.02%     14.44% # Number of BTB lookups (Count)
system.cpu0.branchPred.btb.lookups::DirectCond      1844026     77.24%     91.68% # Number of BTB lookups (Count)
system.cpu0.branchPred.btb.lookups::DirectUncond       164848      6.90%     98.58% # Number of BTB lookups (Count)
system.cpu0.branchPred.btb.lookups::IndirectCond            0      0.00%     98.58% # Number of BTB lookups (Count)
system.cpu0.branchPred.btb.lookups::IndirectUncond        33833      1.42%    100.00% # Number of BTB lookups (Count)
system.cpu0.branchPred.btb.lookups::total      2387386                       # Number of BTB lookups (Count)
system.cpu0.branchPred.btb.misses::NoBranch           23      0.00%      0.00% # Number of BTB misses (Count)
system.cpu0.branchPred.btb.misses::Return       167464     15.70%     15.70% # Number of BTB misses (Count)
system.cpu0.branchPred.btb.misses::CallDirect         1121      0.11%     15.81% # Number of BTB misses (Count)
system.cpu0.branchPred.btb.misses::CallIndirect          388      0.04%     15.85% # Number of BTB misses (Count)
system.cpu0.branchPred.btb.misses::DirectCond       862971     80.92%     96.77% # Number of BTB misses (Count)
system.cpu0.branchPred.btb.misses::DirectUncond          666      0.06%     96.83% # Number of BTB misses (Count)
system.cpu0.branchPred.btb.misses::IndirectCond            0      0.00%     96.83% # Number of BTB misses (Count)
system.cpu0.branchPred.btb.misses::IndirectUncond        33833      3.17%    100.00% # Number of BTB misses (Count)
system.cpu0.branchPred.btb.misses::total      1066466                       # Number of BTB misses (Count)
system.cpu0.branchPred.btb.updates::NoBranch            0      0.00%      0.00% # Number of BTB updates (Count)
system.cpu0.branchPred.btb.updates::Return            0      0.00%      0.00% # Number of BTB updates (Count)
system.cpu0.branchPred.btb.updates::CallDirect          851      7.10%      7.10% # Number of BTB updates (Count)
system.cpu0.branchPred.btb.updates::CallIndirect            0      0.00%      7.10% # Number of BTB updates (Count)
system.cpu0.branchPred.btb.updates::DirectCond        10467     87.31%     94.41% # Number of BTB updates (Count)
system.cpu0.branchPred.btb.updates::DirectUncond          670      5.59%    100.00% # Number of BTB updates (Count)
system.cpu0.branchPred.btb.updates::IndirectCond            0      0.00%    100.00% # Number of BTB updates (Count)
system.cpu0.branchPred.btb.updates::IndirectUncond            0      0.00%    100.00% # Number of BTB updates (Count)
system.cpu0.branchPred.btb.updates::total        11988                       # Number of BTB updates (Count)
system.cpu0.branchPred.btb.mispredict::NoBranch            0      0.00%      0.00% # Number of BTB mispredictions. No target found or target wrong. (Count)
system.cpu0.branchPred.btb.mispredict::Return            0      0.00%      0.00% # Number of BTB mispredictions. No target found or target wrong. (Count)
system.cpu0.branchPred.btb.mispredict::CallDirect          851      7.10%      7.10% # Number of BTB mispredictions. No target found or target wrong. (Count)
system.cpu0.branchPred.btb.mispredict::CallIndirect            0      0.00%      7.10% # Number of BTB mispredictions. No target found or target wrong. (Count)
system.cpu0.branchPred.btb.mispredict::DirectCond        10467     87.31%     94.41% # Number of BTB mispredictions. No target found or target wrong. (Count)
system.cpu0.branchPred.btb.mispredict::DirectUncond          670      5.59%    100.00% # Number of BTB mispredictions. No target found or target wrong. (Count)
system.cpu0.branchPred.btb.mispredict::IndirectCond            0      0.00%    100.00% # Number of BTB mispredictions. No target found or target wrong. (Count)
system.cpu0.branchPred.btb.mispredict::IndirectUncond            0      0.00%    100.00% # Number of BTB mispredictions. No target found or target wrong. (Count)
system.cpu0.branchPred.btb.mispredict::total        11988                       # Number of BTB mispredictions. No target found or target wrong. (Count)
system.cpu0.branchPred.btb.power_state.pwrStateResidencyTicks::UNDEFINED 204646979628                       # Cumulative time (in ticks) in various power states (Tick)
system.cpu0.branchPred.indirectBranchPred.lookups        34221                       # Number of lookups (Count)
system.cpu0.branchPred.indirectBranchPred.hits        33842                       # Number of hits of a tag (Count)
system.cpu0.branchPred.indirectBranchPred.misses          379                       # Number of misses (Count)
system.cpu0.branchPred.indirectBranchPred.targetRecords          292                       # Number of targets that where recorded/installed in the cache (Count)
system.cpu0.branchPred.indirectBranchPred.indirectRecords        34513                       # Number of indirect branches/calls recorded in the indirect hist (Count)
system.cpu0.branchPred.indirectBranchPred.speculativeOverflows            1                       # Number of times more than the allowed capacity for speculative branches/calls where in flight and destroy the path history (Count)
system.cpu0.branchPred.loop_predictor.used            0                       # Number of times the loop predictor is the provider. (Count)
system.cpu0.branchPred.loop_predictor.correct            0                       # Number of times the loop predictor is the provider and the prediction is correct (Count)
system.cpu0.branchPred.loop_predictor.wrong            0                       # Number of times the loop predictor is the provider and the prediction is wrong (Count)
system.cpu0.branchPred.ras.pushes              194493                       # Number of times a PC was pushed onto the RAS (Count)
system.cpu0.branchPred.ras.pops                194488                       # Number of times a PC was poped from the RAS (Count)
system.cpu0.branchPred.ras.squashes             44325                       # Number of times the stack operation was squashed due to wrong speculation. (Count)
system.cpu0.branchPred.ras.used                150163                       # Number of times the RAS is the provider (Count)
system.cpu0.branchPred.ras.correct             150163                       # Number of times the RAS is the provider and the prediction is correct (Count)
system.cpu0.branchPred.ras.incorrect                0                       # Number of times the RAS is the provider and the prediction is wrong (Count)
system.cpu0.branchPred.statistical_corrector.correct      1009161                       # Number of time the SC predictor is the provider and the prediction is correct (Count)
system.cpu0.branchPred.statistical_corrector.wrong       579007                       # Number of time the SC predictor is the provider and the prediction is wrong (Count)
system.cpu0.branchPred.tage.longestMatchProviderCorrect       451271                       # Number of times TAGE Longest Match is the provider and the prediction is correct (Count)
system.cpu0.branchPred.tage.altMatchProviderCorrect        10602                       # Number of times TAGE Alt Match is the provider and the prediction is correct (Count)
system.cpu0.branchPred.tage.bimodalAltMatchProviderCorrect          987                       # Number of times TAGE Alt Match is the bimodal and it is the provider and the prediction is correct (Count)
system.cpu0.branchPred.tage.bimodalProviderCorrect      1099355                       # Number of times there are no hits on the TAGE tables and the bimodal prediction is correct (Count)
system.cpu0.branchPred.tage.longestMatchProviderWrong        10222                       # Number of times TAGE Longest Match is the provider and the prediction is wrong (Count)
system.cpu0.branchPred.tage.altMatchProviderWrong         3943                       # Number of times TAGE Alt Match is the provider and the prediction is wrong (Count)
system.cpu0.branchPred.tage.bimodalAltMatchProviderWrong          136                       # Number of times TAGE Alt Match is the bimodal and it is the provider and the prediction is wrong (Count)
system.cpu0.branchPred.tage.bimodalProviderWrong         1559                       # Number of times there are no hits on the TAGE tables and the bimodal prediction is wrong (Count)
system.cpu0.branchPred.tage.altMatchProviderWouldHaveHit         2006                       # Number of times TAGE Longest Match is the provider, the prediction is wrong and Alt Match prediction was correct (Count)
system.cpu0.branchPred.tage.longestMatchProviderWouldHaveHit         1909                       # Number of times TAGE Alt Match is the provider, the prediction is wrong and Longest Match prediction was correct (Count)
system.cpu0.branchPred.tage.longestMatchProvider::0            0                       # TAGE provider for longest match (Count)
system.cpu0.branchPred.tage.longestMatchProvider::1            0                       # TAGE provider for longest match (Count)
system.cpu0.branchPred.tage.longestMatchProvider::2        36960                       # TAGE provider for longest match (Count)
system.cpu0.branchPred.tage.longestMatchProvider::3            0                       # TAGE provider for longest match (Count)
system.cpu0.branchPred.tage.longestMatchProvider::4            0                       # TAGE provider for longest match (Count)
system.cpu0.branchPred.tage.longestMatchProvider::5            0                       # TAGE provider for longest match (Count)
system.cpu0.branchPred.tage.longestMatchProvider::6       145321                       # TAGE provider for longest match (Count)
system.cpu0.branchPred.tage.longestMatchProvider::7            0                       # TAGE provider for longest match (Count)
system.cpu0.branchPred.tage.longestMatchProvider::8            0                       # TAGE provider for longest match (Count)
system.cpu0.branchPred.tage.longestMatchProvider::9        24779                       # TAGE provider for longest match (Count)
system.cpu0.branchPred.tage.longestMatchProvider::10        38686                       # TAGE provider for longest match (Count)
system.cpu0.branchPred.tage.longestMatchProvider::11         6655                       # TAGE provider for longest match (Count)
system.cpu0.branchPred.tage.longestMatchProvider::12        30887                       # TAGE provider for longest match (Count)
system.cpu0.branchPred.tage.longestMatchProvider::13        29615                       # TAGE provider for longest match (Count)
system.cpu0.branchPred.tage.longestMatchProvider::14        42157                       # TAGE provider for longest match (Count)
system.cpu0.branchPred.tage.longestMatchProvider::15        13858                       # TAGE provider for longest match (Count)
system.cpu0.branchPred.tage.longestMatchProvider::16        17184                       # TAGE provider for longest match (Count)
system.cpu0.branchPred.tage.longestMatchProvider::17         7132                       # TAGE provider for longest match (Count)
system.cpu0.branchPred.tage.longestMatchProvider::18         6514                       # TAGE provider for longest match (Count)
system.cpu0.branchPred.tage.longestMatchProvider::19         5224                       # TAGE provider for longest match (Count)
system.cpu0.branchPred.tage.longestMatchProvider::20         9877                       # TAGE provider for longest match (Count)
system.cpu0.branchPred.tage.longestMatchProvider::21         9978                       # TAGE provider for longest match (Count)
system.cpu0.branchPred.tage.longestMatchProvider::22         9803                       # TAGE provider for longest match (Count)
system.cpu0.branchPred.tage.longestMatchProvider::23            0                       # TAGE provider for longest match (Count)
system.cpu0.branchPred.tage.longestMatchProvider::24        19158                       # TAGE provider for longest match (Count)
system.cpu0.branchPred.tage.longestMatchProvider::25            0                       # TAGE provider for longest match (Count)
system.cpu0.branchPred.tage.longestMatchProvider::26        10401                       # TAGE provider for longest match (Count)
system.cpu0.branchPred.tage.longestMatchProvider::27            0                       # TAGE provider for longest match (Count)
system.cpu0.branchPred.tage.longestMatchProvider::28         4843                       # TAGE provider for longest match (Count)
system.cpu0.branchPred.tage.longestMatchProvider::29            0                       # TAGE provider for longest match (Count)
system.cpu0.branchPred.tage.longestMatchProvider::30            0                       # TAGE provider for longest match (Count)
system.cpu0.branchPred.tage.longestMatchProvider::31            0                       # TAGE provider for longest match (Count)
system.cpu0.branchPred.tage.longestMatchProvider::32         4884                       # TAGE provider for longest match (Count)
system.cpu0.branchPred.tage.longestMatchProvider::33            0                       # TAGE provider for longest match (Count)
system.cpu0.branchPred.tage.longestMatchProvider::34            0                       # TAGE provider for longest match (Count)
system.cpu0.branchPred.tage.longestMatchProvider::35            0                       # TAGE provider for longest match (Count)
system.cpu0.branchPred.tage.longestMatchProvider::36         2122                       # TAGE provider for longest match (Count)
system.cpu0.branchPred.tage.altMatchProvider::0        85466                       # TAGE provider for alt match (Count)
system.cpu0.branchPred.tage.altMatchProvider::1            0                       # TAGE provider for alt match (Count)
system.cpu0.branchPred.tage.altMatchProvider::2       113524                       # TAGE provider for alt match (Count)
system.cpu0.branchPred.tage.altMatchProvider::3            0                       # TAGE provider for alt match (Count)
system.cpu0.branchPred.tage.altMatchProvider::4            0                       # TAGE provider for alt match (Count)
system.cpu0.branchPred.tage.altMatchProvider::5            0                       # TAGE provider for alt match (Count)
system.cpu0.branchPred.tage.altMatchProvider::6        50085                       # TAGE provider for alt match (Count)
system.cpu0.branchPred.tage.altMatchProvider::7            0                       # TAGE provider for alt match (Count)
system.cpu0.branchPred.tage.altMatchProvider::8            0                       # TAGE provider for alt match (Count)
system.cpu0.branchPred.tage.altMatchProvider::9        29602                       # TAGE provider for alt match (Count)
system.cpu0.branchPred.tage.altMatchProvider::10        52685                       # TAGE provider for alt match (Count)
system.cpu0.branchPred.tage.altMatchProvider::11        16084                       # TAGE provider for alt match (Count)
system.cpu0.branchPred.tage.altMatchProvider::12        28110                       # TAGE provider for alt match (Count)
system.cpu0.branchPred.tage.altMatchProvider::13        11772                       # TAGE provider for alt match (Count)
system.cpu0.branchPred.tage.altMatchProvider::14         6419                       # TAGE provider for alt match (Count)
system.cpu0.branchPred.tage.altMatchProvider::15         8031                       # TAGE provider for alt match (Count)
system.cpu0.branchPred.tage.altMatchProvider::16        10045                       # TAGE provider for alt match (Count)
system.cpu0.branchPred.tage.altMatchProvider::17         6769                       # TAGE provider for alt match (Count)
system.cpu0.branchPred.tage.altMatchProvider::18         6495                       # TAGE provider for alt match (Count)
system.cpu0.branchPred.tage.altMatchProvider::19         6019                       # TAGE provider for alt match (Count)
system.cpu0.branchPred.tage.altMatchProvider::20        11628                       # TAGE provider for alt match (Count)
system.cpu0.branchPred.tage.altMatchProvider::21         7222                       # TAGE provider for alt match (Count)
system.cpu0.branchPred.tage.altMatchProvider::22         8943                       # TAGE provider for alt match (Count)
system.cpu0.branchPred.tage.altMatchProvider::23            0                       # TAGE provider for alt match (Count)
system.cpu0.branchPred.tage.altMatchProvider::24         8171                       # TAGE provider for alt match (Count)
system.cpu0.branchPred.tage.altMatchProvider::25            0                       # TAGE provider for alt match (Count)
system.cpu0.branchPred.tage.altMatchProvider::26         3038                       # TAGE provider for alt match (Count)
system.cpu0.branchPred.tage.altMatchProvider::27            0                       # TAGE provider for alt match (Count)
system.cpu0.branchPred.tage.altMatchProvider::28         3932                       # TAGE provider for alt match (Count)
system.cpu0.branchPred.tage.altMatchProvider::29            0                       # TAGE provider for alt match (Count)
system.cpu0.branchPred.tage.altMatchProvider::30            0                       # TAGE provider for alt match (Count)
system.cpu0.branchPred.tage.altMatchProvider::31            0                       # TAGE provider for alt match (Count)
system.cpu0.branchPred.tage.altMatchProvider::32         1998                       # TAGE provider for alt match (Count)
system.cpu0.branchPred.tage.altMatchProvider::33            0                       # TAGE provider for alt match (Count)
system.cpu0.branchPred.tage.altMatchProvider::34            0                       # TAGE provider for alt match (Count)
system.cpu0.branchPred.tage.altMatchProvider::35            0                       # TAGE provider for alt match (Count)
system.cpu0.branchPred.tage.altMatchProvider::36            0                       # TAGE provider for alt match (Count)
system.cpu0.clk_domain.clock                      294                       # Clock period in ticks (Tick)
system.cpu0.commit.commitSquashedInsts        2525604                       # The number of squashed insts skipped by commit (Count)
system.cpu0.commit.commitNonSpecStalls          35913                       # The number of times commit has been forced to stall to communicate backwards (Count)
system.cpu0.commit.branchMispredicts            23161                       # The number of times a branch was mispredicted (Count)
system.cpu0.commit.numCommittedDist::samples     11326961                       # Number of insts commited each cycle (Count)
system.cpu0.commit.numCommittedDist::mean     2.133683                       # Number of insts commited each cycle (Count)
system.cpu0.commit.numCommittedDist::stdev     2.534564                       # Number of insts commited each cycle (Count)
system.cpu0.commit.numCommittedDist::underflows            0      0.00%      0.00% # Number of insts commited each cycle (Count)
system.cpu0.commit.numCommittedDist::0        3720965     32.85%     32.85% # Number of insts commited each cycle (Count)
system.cpu0.commit.numCommittedDist::1        3140895     27.73%     60.58% # Number of insts commited each cycle (Count)
system.cpu0.commit.numCommittedDist::2         645667      5.70%     66.28% # Number of insts commited each cycle (Count)
system.cpu0.commit.numCommittedDist::3        1361141     12.02%     78.30% # Number of insts commited each cycle (Count)
system.cpu0.commit.numCommittedDist::4         500629      4.42%     82.72% # Number of insts commited each cycle (Count)
system.cpu0.commit.numCommittedDist::5         454103      4.01%     86.73% # Number of insts commited each cycle (Count)
system.cpu0.commit.numCommittedDist::6         251382      2.22%     88.95% # Number of insts commited each cycle (Count)
system.cpu0.commit.numCommittedDist::7         146263      1.29%     90.24% # Number of insts commited each cycle (Count)
system.cpu0.commit.numCommittedDist::8        1105916      9.76%    100.00% # Number of insts commited each cycle (Count)
system.cpu0.commit.numCommittedDist::overflows            0      0.00%    100.00% # Number of insts commited each cycle (Count)
system.cpu0.commit.numCommittedDist::min_value            0                       # Number of insts commited each cycle (Count)
system.cpu0.commit.numCommittedDist::max_value            8                       # Number of insts commited each cycle (Count)
system.cpu0.commit.numCommittedDist::total     11326961                       # Number of insts commited each cycle (Count)
system.cpu0.commit.amos                             0                       # Number of atomic instructions committed (Count)
system.cpu0.commit.membars                      23942                       # Number of memory barriers committed (Count)
system.cpu0.commit.functionCalls               150168                       # Number of function calls committed. (Count)
system.cpu0.commit.committedInstType_0::No_OpClass       135022      0.56%      0.56% # Class of committed instruction (Count)
system.cpu0.commit.committedInstType_0::IntAlu     18491887     76.51%     77.07% # Class of committed instruction (Count)
system.cpu0.commit.committedInstType_0::IntMult       182334      0.75%     77.83% # Class of committed instruction (Count)
system.cpu0.commit.committedInstType_0::IntDiv      1200129      4.97%     82.79% # Class of committed instruction (Count)
system.cpu0.commit.committedInstType_0::FloatAdd        12418      0.05%     82.84% # Class of committed instruction (Count)
system.cpu0.commit.committedInstType_0::FloatCmp            0      0.00%     82.84% # Class of committed instruction (Count)
system.cpu0.commit.committedInstType_0::FloatCvt            0      0.00%     82.84% # Class of committed instruction (Count)
system.cpu0.commit.committedInstType_0::FloatMult            0      0.00%     82.84% # Class of committed instruction (Count)
system.cpu0.commit.committedInstType_0::FloatMultAcc            0      0.00%     82.84% # Class of committed instruction (Count)
system.cpu0.commit.committedInstType_0::FloatDiv            0      0.00%     82.84% # Class of committed instruction (Count)
system.cpu0.commit.committedInstType_0::FloatMisc            0      0.00%     82.84% # Class of committed instruction (Count)
system.cpu0.commit.committedInstType_0::FloatSqrt            0      0.00%     82.84% # Class of committed instruction (Count)
system.cpu0.commit.committedInstType_0::SimdAdd           10      0.00%     82.84% # Class of committed instruction (Count)
system.cpu0.commit.committedInstType_0::SimdAddAcc            0      0.00%     82.84% # Class of committed instruction (Count)
system.cpu0.commit.committedInstType_0::SimdAlu        12011      0.05%     82.89% # Class of committed instruction (Count)
system.cpu0.commit.committedInstType_0::SimdCmp            0      0.00%     82.89% # Class of committed instruction (Count)
system.cpu0.commit.committedInstType_0::SimdCvt           10      0.00%     82.89% # Class of committed instruction (Count)
system.cpu0.commit.committedInstType_0::SimdMisc        26911      0.11%     83.00% # Class of committed instruction (Count)
system.cpu0.commit.committedInstType_0::SimdMult            0      0.00%     83.00% # Class of committed instruction (Count)
system.cpu0.commit.committedInstType_0::SimdMultAcc            0      0.00%     83.00% # Class of committed instruction (Count)
system.cpu0.commit.committedInstType_0::SimdMatMultAcc            0      0.00%     83.00% # Class of committed instruction (Count)
system.cpu0.commit.committedInstType_0::SimdShift            3      0.00%     83.00% # Class of committed instruction (Count)
system.cpu0.commit.committedInstType_0::SimdShiftAcc            0      0.00%     83.00% # Class of committed instruction (Count)
system.cpu0.commit.committedInstType_0::SimdDiv            0      0.00%     83.00% # Class of committed instruction (Count)
system.cpu0.commit.committedInstType_0::SimdSqrt            0      0.00%     83.00% # Class of committed instruction (Count)
system.cpu0.commit.committedInstType_0::SimdFloatAdd           45      0.00%     83.01% # Class of committed instruction (Count)
system.cpu0.commit.committedInstType_0::SimdFloatAlu            0      0.00%     83.01% # Class of committed instruction (Count)
system.cpu0.commit.committedInstType_0::SimdFloatCmp            0      0.00%     83.01% # Class of committed instruction (Count)
system.cpu0.commit.committedInstType_0::SimdFloatCvt           14      0.00%     83.01% # Class of committed instruction (Count)
system.cpu0.commit.committedInstType_0::SimdFloatDiv            2      0.00%     83.01% # Class of committed instruction (Count)
system.cpu0.commit.committedInstType_0::SimdFloatMisc            0      0.00%     83.01% # Class of committed instruction (Count)
system.cpu0.commit.committedInstType_0::SimdFloatMult           24      0.00%     83.01% # Class of committed instruction (Count)
system.cpu0.commit.committedInstType_0::SimdFloatMultAcc            0      0.00%     83.01% # Class of committed instruction (Count)
system.cpu0.commit.committedInstType_0::SimdFloatMatMultAcc            0      0.00%     83.01% # Class of committed instruction (Count)
system.cpu0.commit.committedInstType_0::SimdFloatSqrt            0      0.00%     83.01% # Class of committed instruction (Count)
system.cpu0.commit.committedInstType_0::SimdReduceAdd            0      0.00%     83.01% # Class of committed instruction (Count)
system.cpu0.commit.committedInstType_0::SimdReduceAlu            0      0.00%     83.01% # Class of committed instruction (Count)
system.cpu0.commit.committedInstType_0::SimdReduceCmp            0      0.00%     83.01% # Class of committed instruction (Count)
system.cpu0.commit.committedInstType_0::SimdFloatReduceAdd            0      0.00%     83.01% # Class of committed instruction (Count)
system.cpu0.commit.committedInstType_0::SimdFloatReduceCmp            0      0.00%     83.01% # Class of committed instruction (Count)
system.cpu0.commit.committedInstType_0::SimdAes            0      0.00%     83.01% # Class of committed instruction (Count)
system.cpu0.commit.committedInstType_0::SimdAesMix            0      0.00%     83.01% # Class of committed instruction (Count)
system.cpu0.commit.committedInstType_0::SimdSha1Hash            0      0.00%     83.01% # Class of committed instruction (Count)
system.cpu0.commit.committedInstType_0::SimdSha1Hash2            0      0.00%     83.01% # Class of committed instruction (Count)
system.cpu0.commit.committedInstType_0::SimdSha256Hash            0      0.00%     83.01% # Class of committed instruction (Count)
system.cpu0.commit.committedInstType_0::SimdSha256Hash2            0      0.00%     83.01% # Class of committed instruction (Count)
system.cpu0.commit.committedInstType_0::SimdShaSigma2            0      0.00%     83.01% # Class of committed instruction (Count)
system.cpu0.commit.committedInstType_0::SimdShaSigma3            0      0.00%     83.01% # Class of committed instruction (Count)
system.cpu0.commit.committedInstType_0::SimdPredAlu            0      0.00%     83.01% # Class of committed instruction (Count)
system.cpu0.commit.committedInstType_0::Matrix            0      0.00%     83.01% # Class of committed instruction (Count)
system.cpu0.commit.committedInstType_0::MatrixMov            0      0.00%     83.01% # Class of committed instruction (Count)
system.cpu0.commit.committedInstType_0::MatrixOP            0      0.00%     83.01% # Class of committed instruction (Count)
system.cpu0.commit.committedInstType_0::MemRead      2321142      9.60%     92.61% # Class of committed instruction (Count)
system.cpu0.commit.committedInstType_0::MemWrite      1191613      4.93%     97.54% # Class of committed instruction (Count)
system.cpu0.commit.committedInstType_0::FloatMemRead       287573      1.19%     98.73% # Class of committed instruction (Count)
system.cpu0.commit.committedInstType_0::FloatMemWrite       306996      1.27%    100.00% # Class of committed instruction (Count)
system.cpu0.commit.committedInstType_0::IprAccess            0      0.00%    100.00% # Class of committed instruction (Count)
system.cpu0.commit.committedInstType_0::InstPrefetch            0      0.00%    100.00% # Class of committed instruction (Count)
system.cpu0.commit.committedInstType_0::SimdUnitStrideLoad            0      0.00%    100.00% # Class of committed instruction (Count)
system.cpu0.commit.committedInstType_0::SimdUnitStrideStore            0      0.00%    100.00% # Class of committed instruction (Count)
system.cpu0.commit.committedInstType_0::SimdUnitStrideMaskLoad            0      0.00%    100.00% # Class of committed instruction (Count)
system.cpu0.commit.committedInstType_0::SimdUnitStrideMaskStore            0      0.00%    100.00% # Class of committed instruction (Count)
system.cpu0.commit.committedInstType_0::SimdStridedLoad            0      0.00%    100.00% # Class of committed instruction (Count)
system.cpu0.commit.committedInstType_0::SimdStridedStore            0      0.00%    100.00% # Class of committed instruction (Count)
system.cpu0.commit.committedInstType_0::SimdIndexedLoad            0      0.00%    100.00% # Class of committed instruction (Count)
system.cpu0.commit.committedInstType_0::SimdIndexedStore            0      0.00%    100.00% # Class of committed instruction (Count)
system.cpu0.commit.committedInstType_0::SimdWholeRegisterLoad            0      0.00%    100.00% # Class of committed instruction (Count)
system.cpu0.commit.committedInstType_0::SimdWholeRegisterStore            0      0.00%    100.00% # Class of committed instruction (Count)
system.cpu0.commit.committedInstType_0::SimdUnitStrideFaultOnlyFirstLoad            0      0.00%    100.00% # Class of committed instruction (Count)
system.cpu0.commit.committedInstType_0::SimdUnitStrideSegmentedLoad            0      0.00%    100.00% # Class of committed instruction (Count)
system.cpu0.commit.committedInstType_0::SimdUnitStrideSegmentedStore            0      0.00%    100.00% # Class of committed instruction (Count)
system.cpu0.commit.committedInstType_0::SimdExt            0      0.00%    100.00% # Class of committed instruction (Count)
system.cpu0.commit.committedInstType_0::SimdFloatExt            0      0.00%    100.00% # Class of committed instruction (Count)
system.cpu0.commit.committedInstType_0::SimdConfig            0      0.00%    100.00% # Class of committed instruction (Count)
system.cpu0.commit.committedInstType_0::total     24168144                       # Class of committed instruction (Count)
system.cpu0.commit.commitEligibleSamples      1105916                       # number cycles where commit BW limit reached (Cycle)
system.cpu0.commit.memoryViolations             10001                       # Number of memory violations (Cycle)
system.cpu0.commit.stalledBranchMispredicts            0                       # Number of delayed branch squashes (Cycle)
system.cpu0.commit.stalledMemoryViolations            0                       # Number of delayed memory violation squashes (Cycle)
system.cpu0.commit.protStores                  285717                       # [Protean] Number of protected stores (Count)
system.cpu0.commit.regTaints                        0                       # [Protean] Number of r-taint primitives (Count)
system.cpu0.commit.memTaints                        0                       # [Protean] Number of m-taint primitives (Count)
system.cpu0.commit.xmitTaints                   90494                       # [Protean] Number of x-taint primitives (Count)
system.cpu0.commit.predAccess                  694968                       # [Protean] Correctly predicted access loads (Count)
system.cpu0.commit.predNoAccess               1766015                       # [Protean] Correctly predicted no-access loads (Count)
system.cpu0.commit.mispredAccess               124655                       # [Protean] Mispredicted access loads (Count)
system.cpu0.commit.mispredNoAccess              23077                       # [Protean] Mispredicted no-access loads (Count)
system.cpu0.commitStats0.numInsts            10265269                       # Number of instructions committed (thread level) (Count)
system.cpu0.commitStats0.numOps              24168144                       # Number of ops (including micro ops) committed (thread level) (Count)
system.cpu0.commitStats0.numInstsNotNOP      10265269                       # Number of instructions committed excluding NOPs or prefetches (Count)
system.cpu0.commitStats0.numOpsNotNOP        24168144                       # Number of Ops (including micro ops) Simulated (Count)
system.cpu0.commitStats0.cpi                 1.148649                       # CPI: cycles per instruction (thread level) ((Cycle/Count))
system.cpu0.commitStats0.ipc                 0.870588                       # IPC: instructions per cycle (thread level) ((Count/Cycle))
system.cpu0.commitStats0.numMemRefs           4107324                       # Number of memory references committed (Count)
system.cpu0.commitStats0.numFpInsts            656361                       # Number of float instructions (Count)
system.cpu0.commitStats0.numIntInsts         23787729                       # Number of integer instructions (Count)
system.cpu0.commitStats0.numLoadInsts         2608715                       # Number of load instructions (Count)
system.cpu0.commitStats0.numStoreInsts        1498609                       # Number of store instructions (Count)
system.cpu0.commitStats0.numVecInsts                0                       # Number of vector instructions (Count)
system.cpu0.commitStats0.committedInstType::No_OpClass       135022      0.56%      0.56% # Class of committed instruction. (Count)
system.cpu0.commitStats0.committedInstType::IntAlu     18491887     76.51%     77.07% # Class of committed instruction. (Count)
system.cpu0.commitStats0.committedInstType::IntMult       182334      0.75%     77.83% # Class of committed instruction. (Count)
system.cpu0.commitStats0.committedInstType::IntDiv      1200129      4.97%     82.79% # Class of committed instruction. (Count)
system.cpu0.commitStats0.committedInstType::FloatAdd        12418      0.05%     82.84% # Class of committed instruction. (Count)
system.cpu0.commitStats0.committedInstType::FloatCmp            0      0.00%     82.84% # Class of committed instruction. (Count)
system.cpu0.commitStats0.committedInstType::FloatCvt            0      0.00%     82.84% # Class of committed instruction. (Count)
system.cpu0.commitStats0.committedInstType::FloatMult            0      0.00%     82.84% # Class of committed instruction. (Count)
system.cpu0.commitStats0.committedInstType::FloatMultAcc            0      0.00%     82.84% # Class of committed instruction. (Count)
system.cpu0.commitStats0.committedInstType::FloatDiv            0      0.00%     82.84% # Class of committed instruction. (Count)
[...]
system.ruby.network.routers4.throttle00.avg_msg_wait_time          nan                       # Average time a message took to be forwarded (Ratio)
system.ruby.network.routers4.throttle00.avg_bandwidth         0.00                       # Average bandwidth (GB/s) (Ratio)
system.ruby.network.routers4.throttle00.avg_useful_bandwidth         0.00                       # Average usefull (only data) bandwidth (GB/s) (Ratio)
system.ruby.network.routers4.throttle01.acc_link_utilization            0                       # Accumulated link utilization (Count)
system.ruby.network.routers4.throttle01.link_utilization            0                       # Average link utilization (Ratio)
system.ruby.network.routers4.throttle01.total_msg_count            0                       # Total number of messages forwarded by this switch (Count)
system.ruby.network.routers4.throttle01.total_msg_bytes            0                       # Total number of bytes forwarded by this switch (Byte)
system.ruby.network.routers4.throttle01.total_data_msg_bytes            0                       # Total number of data bytes forwarded by this switch (Byte)
system.ruby.network.routers4.throttle01.total_msg_wait_time            0                       # Total time spend forwarding messages (Tick)
system.ruby.network.routers4.throttle01.total_stall_cy            0                       # Total time spent blocked on any output link (Cycle)
system.ruby.network.routers4.throttle01.total_bw_sat_cy            0                       # Total time bandwidth was saturated on any output link (Cycle)
system.ruby.network.routers4.throttle01.avg_msg_wait_time          nan                       # Average time a message took to be forwarded (Ratio)
system.ruby.network.routers4.throttle01.avg_bandwidth         0.00                       # Average bandwidth (GB/s) (Ratio)
system.ruby.network.routers4.throttle01.avg_useful_bandwidth         0.00                       # Average usefull (only data) bandwidth (GB/s) (Ratio)
system.ruby.network.routers5.percent_links_utilized            0                       (Unspecified)
system.ruby.network.routers5.power_state.pwrStateResidencyTicks::UNDEFINED 204646979628                       # Cumulative time (in ticks) in various power states (Tick)
system.ruby.network.routers5.throttle00.acc_link_utilization            0                       # Accumulated link utilization (Count)
system.ruby.network.routers5.throttle00.link_utilization            0                       # Average link utilization (Ratio)
system.ruby.network.routers5.throttle00.total_msg_count            0                       # Total number of messages forwarded by this switch (Count)
system.ruby.network.routers5.throttle00.total_msg_bytes            0                       # Total number of bytes forwarded by this switch (Byte)
system.ruby.network.routers5.throttle00.total_data_msg_bytes            0                       # Total number of data bytes forwarded by this switch (Byte)
system.ruby.network.routers5.throttle00.total_msg_wait_time            0                       # Total time spend forwarding messages (Tick)
system.ruby.network.routers5.throttle00.total_stall_cy            0                       # Total time spent blocked on any output link (Cycle)
system.ruby.network.routers5.throttle00.total_bw_sat_cy            0                       # Total time bandwidth was saturated on any output link (Cycle)
system.ruby.network.routers5.throttle00.avg_msg_wait_time          nan                       # Average time a message took to be forwarded (Ratio)
system.ruby.network.routers5.throttle00.avg_bandwidth         0.00                       # Average bandwidth (GB/s) (Ratio)
system.ruby.network.routers5.throttle00.avg_useful_bandwidth         0.00                       # Average usefull (only data) bandwidth (GB/s) (Ratio)
system.ruby.network.routers5.throttle01.acc_link_utilization            0                       # Accumulated link utilization (Count)
system.ruby.network.routers5.throttle01.link_utilization            0                       # Average link utilization (Ratio)
system.ruby.network.routers5.throttle01.total_msg_count            0                       # Total number of messages forwarded by this switch (Count)
system.ruby.network.routers5.throttle01.total_msg_bytes            0                       # Total number of bytes forwarded by this switch (Byte)
system.ruby.network.routers5.throttle01.total_data_msg_bytes            0                       # Total number of data bytes forwarded by this switch (Byte)
system.ruby.network.routers5.throttle01.total_msg_wait_time            0                       # Total time spend forwarding messages (Tick)
system.ruby.network.routers5.throttle01.total_stall_cy            0                       # Total time spent blocked on any output link (Cycle)
system.ruby.network.routers5.throttle01.total_bw_sat_cy            0                       # Total time bandwidth was saturated on any output link (Cycle)
system.ruby.network.routers5.throttle01.avg_msg_wait_time          nan                       # Average time a message took to be forwarded (Ratio)
system.ruby.network.routers5.throttle01.avg_bandwidth         0.00                       # Average bandwidth (GB/s) (Ratio)
system.ruby.network.routers5.throttle01.avg_useful_bandwidth         0.00                       # Average usefull (only data) bandwidth (GB/s) (Ratio)
system.ruby.network.routers6.percent_links_utilized            0                       (Unspecified)
system.ruby.network.routers6.power_state.pwrStateResidencyTicks::UNDEFINED 204646979628                       # Cumulative time (in ticks) in various power states (Tick)
system.ruby.network.routers6.throttle00.acc_link_utilization            0                       # Accumulated link utilization (Count)
system.ruby.network.routers6.throttle00.link_utilization            0                       # Average link utilization (Ratio)
system.ruby.network.routers6.throttle00.total_msg_count            0                       # Total number of messages forwarded by this switch (Count)
system.ruby.network.routers6.throttle00.total_msg_bytes            0                       # Total number of bytes forwarded by this switch (Byte)
system.ruby.network.routers6.throttle00.total_data_msg_bytes            0                       # Total number of data bytes forwarded by this switch (Byte)
system.ruby.network.routers6.throttle00.total_msg_wait_time            0                       # Total time spend forwarding messages (Tick)
system.ruby.network.routers6.throttle00.total_stall_cy            0                       # Total time spent blocked on any output link (Cycle)
system.ruby.network.routers6.throttle00.total_bw_sat_cy            0                       # Total time bandwidth was saturated on any output link (Cycle)
system.ruby.network.routers6.throttle00.avg_msg_wait_time          nan                       # Average time a message took to be forwarded (Ratio)
system.ruby.network.routers6.throttle00.avg_bandwidth         0.00                       # Average bandwidth (GB/s) (Ratio)
system.ruby.network.routers6.throttle00.avg_useful_bandwidth         0.00                       # Average usefull (only data) bandwidth (GB/s) (Ratio)
system.ruby.network.routers6.throttle01.acc_link_utilization            0                       # Accumulated link utilization (Count)
system.ruby.network.routers6.throttle01.link_utilization            0                       # Average link utilization (Ratio)
system.ruby.network.routers6.throttle01.total_msg_count            0                       # Total number of messages forwarded by this switch (Count)
system.ruby.network.routers6.throttle01.total_msg_bytes            0                       # Total number of bytes forwarded by this switch (Byte)
system.ruby.network.routers6.throttle01.total_data_msg_bytes            0                       # Total number of data bytes forwarded by this switch (Byte)
system.ruby.network.routers6.throttle01.total_msg_wait_time            0                       # Total time spend forwarding messages (Tick)
system.ruby.network.routers6.throttle01.total_stall_cy            0                       # Total time spent blocked on any output link (Cycle)
system.ruby.network.routers6.throttle01.total_bw_sat_cy            0                       # Total time bandwidth was saturated on any output link (Cycle)
system.ruby.network.routers6.throttle01.avg_msg_wait_time          nan                       # Average time a message took to be forwarded (Ratio)
system.ruby.network.routers6.throttle01.avg_bandwidth         0.00                       # Average bandwidth (GB/s) (Ratio)
system.ruby.network.routers6.throttle01.avg_useful_bandwidth         0.00                       # Average usefull (only data) bandwidth (GB/s) (Ratio)
system.ruby.network.routers7.percent_links_utilized            0                       (Unspecified)
system.ruby.network.routers7.power_state.pwrStateResidencyTicks::UNDEFINED 204646979628                       # Cumulative time (in ticks) in various power states (Tick)
system.ruby.network.routers7.throttle00.acc_link_utilization            0                       # Accumulated link utilization (Count)
system.ruby.network.routers7.throttle00.link_utilization            0                       # Average link utilization (Ratio)
system.ruby.network.routers7.throttle00.total_msg_count            0                       # Total number of messages forwarded by this switch (Count)
system.ruby.network.routers7.throttle00.total_msg_bytes            0                       # Total number of bytes forwarded by this switch (Byte)
system.ruby.network.routers7.throttle00.total_data_msg_bytes            0                       # Total number of data bytes forwarded by this switch (Byte)
system.ruby.network.routers7.throttle00.total_msg_wait_time            0                       # Total time spend forwarding messages (Tick)
system.ruby.network.routers7.throttle00.total_stall_cy            0                       # Total time spent blocked on any output link (Cycle)
system.ruby.network.routers7.throttle00.total_bw_sat_cy            0                       # Total time bandwidth was saturated on any output link (Cycle)
system.ruby.network.routers7.throttle00.avg_msg_wait_time          nan                       # Average time a message took to be forwarded (Ratio)
system.ruby.network.routers7.throttle00.avg_bandwidth         0.00                       # Average bandwidth (GB/s) (Ratio)
system.ruby.network.routers7.throttle00.avg_useful_bandwidth         0.00                       # Average usefull (only data) bandwidth (GB/s) (Ratio)
system.ruby.network.routers7.throttle01.acc_link_utilization            0                       # Accumulated link utilization (Count)
system.ruby.network.routers7.throttle01.link_utilization            0                       # Average link utilization (Ratio)
system.ruby.network.routers7.throttle01.total_msg_count            0                       # Total number of messages forwarded by this switch (Count)
system.ruby.network.routers7.throttle01.total_msg_bytes            0                       # Total number of bytes forwarded by this switch (Byte)
system.ruby.network.routers7.throttle01.total_data_msg_bytes            0                       # Total number of data bytes forwarded by this switch (Byte)
system.ruby.network.routers7.throttle01.total_msg_wait_time            0                       # Total time spend forwarding messages (Tick)
system.ruby.network.routers7.throttle01.total_stall_cy            0                       # Total time spent blocked on any output link (Cycle)
system.ruby.network.routers7.throttle01.total_bw_sat_cy            0                       # Total time bandwidth was saturated on any output link (Cycle)
system.ruby.network.routers7.throttle01.avg_msg_wait_time          nan                       # Average time a message took to be forwarded (Ratio)
system.ruby.network.routers7.throttle01.avg_bandwidth         0.00                       # Average bandwidth (GB/s) (Ratio)
system.ruby.network.routers7.throttle01.avg_useful_bandwidth         0.00                       # Average usefull (only data) bandwidth (GB/s) (Ratio)
system.ruby.network.routers8.percent_links_utilized            0                       (Unspecified)
system.ruby.network.routers8.power_state.pwrStateResidencyTicks::UNDEFINED 204646979628                       # Cumulative time (in ticks) in various power states (Tick)
system.ruby.network.routers8.throttle00.acc_link_utilization            0                       # Accumulated link utilization (Count)
system.ruby.network.routers8.throttle00.link_utilization            0                       # Average link utilization (Ratio)
system.ruby.network.routers8.throttle00.total_msg_count            0                       # Total number of messages forwarded by this switch (Count)
system.ruby.network.routers8.throttle00.total_msg_bytes            0                       # Total number of bytes forwarded by this switch (Byte)
system.ruby.network.routers8.throttle00.total_data_msg_bytes            0                       # Total number of data bytes forwarded by this switch (Byte)
system.ruby.network.routers8.throttle00.total_msg_wait_time            0                       # Total time spend forwarding messages (Tick)
system.ruby.network.routers8.throttle00.total_stall_cy            0                       # Total time spent blocked on any output link (Cycle)
system.ruby.network.routers8.throttle00.total_bw_sat_cy            0                       # Total time bandwidth was saturated on any output link (Cycle)
system.ruby.network.routers8.throttle00.avg_msg_wait_time          nan                       # Average time a message took to be forwarded (Ratio)
system.ruby.network.routers8.throttle00.avg_bandwidth         0.00                       # Average bandwidth (GB/s) (Ratio)
system.ruby.network.routers8.throttle00.avg_useful_bandwidth         0.00                       # Average usefull (only data) bandwidth (GB/s) (Ratio)
system.ruby.network.routers8.throttle01.acc_link_utilization            0                       # Accumulated link utilization (Count)
system.ruby.network.routers8.throttle01.link_utilization            0                       # Average link utilization (Ratio)
system.ruby.network.routers8.throttle01.total_msg_count            0                       # Total number of messages forwarded by this switch (Count)
system.ruby.network.routers8.throttle01.total_msg_bytes            0                       # Total number of bytes forwarded by this switch (Byte)
system.ruby.network.routers8.throttle01.total_data_msg_bytes            0                       # Total number of data bytes forwarded by this switch (Byte)
system.ruby.network.routers8.throttle01.total_msg_wait_time            0                       # Total time spend forwarding messages (Tick)
system.ruby.network.routers8.throttle01.total_stall_cy            0                       # Total time spent blocked on any output link (Cycle)
system.ruby.network.routers8.throttle01.total_bw_sat_cy            0                       # Total time bandwidth was saturated on any output link (Cycle)
system.ruby.network.routers8.throttle01.avg_msg_wait_time          nan                       # Average time a message took to be forwarded (Ratio)
system.ruby.network.routers8.throttle01.avg_bandwidth         0.00                       # Average bandwidth (GB/s) (Ratio)
system.ruby.network.routers8.throttle01.avg_useful_bandwidth         0.00                       # Average usefull (only data) bandwidth (GB/s) (Ratio)
system.ruby.network.routers9.percent_links_utilized            0                       (Unspecified)
system.ruby.network.routers9.power_state.pwrStateResidencyTicks::UNDEFINED 204646979628                       # Cumulative time (in ticks) in various power states (Tick)
system.ruby.network.routers9.throttle00.acc_link_utilization            0                       # Accumulated link utilization (Count)
system.ruby.network.routers9.throttle00.link_utilization            0                       # Average link utilization (Ratio)
system.ruby.network.routers9.throttle00.total_msg_count            0                       # Total number of messages forwarded by this switch (Count)
system.ruby.network.routers9.throttle00.total_msg_bytes            0                       # Total number of bytes forwarded by this switch (Byte)
system.ruby.network.routers9.throttle00.total_data_msg_bytes            0                       # Total number of data bytes forwarded by this switch (Byte)
system.ruby.network.routers9.throttle00.total_msg_wait_time            0                       # Total time spend forwarding messages (Tick)
system.ruby.network.routers9.throttle00.total_stall_cy            0                       # Total time spent blocked on any output link (Cycle)
system.ruby.network.routers9.throttle00.total_bw_sat_cy            0                       # Total time bandwidth was saturated on any output link (Cycle)
system.ruby.network.routers9.throttle00.avg_msg_wait_time          nan                       # Average time a message took to be forwarded (Ratio)
system.ruby.network.routers9.throttle00.avg_bandwidth         0.00                       # Average bandwidth (GB/s) (Ratio)
system.ruby.network.routers9.throttle00.avg_useful_bandwidth         0.00                       # Average usefull (only data) bandwidth (GB/s) (Ratio)
system.ruby.network.routers9.throttle01.acc_link_utilization            0                       # Accumulated link utilization (Count)
system.ruby.network.routers9.throttle01.link_utilization            0                       # Average link utilization (Ratio)
system.ruby.network.routers9.throttle01.total_msg_count            0                       # Total number of messages forwarded by this switch (Count)
system.ruby.network.routers9.throttle01.total_msg_bytes            0                       # Total number of bytes forwarded by this switch (Byte)
system.ruby.network.routers9.throttle01.total_data_msg_bytes            0                       # Total number of data bytes forwarded by this switch (Byte)
system.ruby.network.routers9.throttle01.total_msg_wait_time            0                       # Total time spend forwarding messages (Tick)
system.ruby.network.routers9.throttle01.total_stall_cy            0                       # Total time spent blocked on any output link (Cycle)
system.ruby.network.routers9.throttle01.total_bw_sat_cy            0                       # Total time bandwidth was saturated on any output link (Cycle)
system.ruby.network.routers9.throttle01.avg_msg_wait_time          nan                       # Average time a message took to be forwarded (Ratio)
system.ruby.network.routers9.throttle01.avg_bandwidth         0.00                       # Average bandwidth (GB/s) (Ratio)
system.ruby.network.routers9.throttle01.avg_useful_bandwidth         0.00                       # Average usefull (only data) bandwidth (GB/s) (Ratio)
system.ruby.power_state.pwrStateResidencyTicks::UNDEFINED 204646979628                       # Cumulative time (in ticks) in various power states (Tick)
system.sys_port_proxy.power_state.pwrStateResidencyTicks::UNDEFINED 204646979628                       # Cumulative time (in ticks) in various power states (Tick)
system.voltage_domain.voltage                       1                       # Voltage in Volts (Volt)
system.workload.inst.arm                            0                       # number of arm instructions executed (Count)
system.workload.inst.quiesce                        0                       # number of quiesce instructions executed (Count)

---------- End Simulation Statistics   ----------
